chair_1C4_beta_rank1_Q0.795_theta174.7_phi45.0_E15.2
     RDKit          3D

182187  0  0  0  0  0  0  0  0999 V2000
  189.2065  151.0942    0.6297 C   0  0  2  0  0  0  0  0  0  0  0  0
  190.5428  151.1356   -0.0373 C   0  0  0  0  0  0  0  0  0  0  0  0
  190.7376  151.6494   -1.1322 O   0  0  0  0  0  0  0  0  0  0  0  0
  191.5164  150.5392    0.7256 N   0  0  0  0  0  2  0  0  0  0  0  0
  192.8791  150.4547    0.2416 C   0  0  2  0  0  0  0  0  0  0  0  0
  193.7753  149.7129    1.2114 C   0  0  2  0  0  0  0  0  0  0  0  0
  195.2047  149.6715    0.7129 C   0  0  1  0  0  0  0  0  0  0  0  0
  195.6799  151.0574    0.3139 C   0  0  2  0  0  0  0  0  0  0  0  0
  194.7935  151.6621   -0.6291 O   0  0  0  0  0  0  0  0  0  0  0  0
  193.4825  151.8195   -0.0863 C   0  0  2  0  0  0  0  0  0  0  0  0
  193.5027  152.6526    1.0611 O   0  0  0  0  0  0  0  0  0  0  0  0
  197.0847  151.0244   -0.2600 C   0  0  2  0  0  0  0  0  0  0  0  0
  197.4356  150.2387   -1.2521 O   0  0  0  0  0  0  0  0  0  0  0  0
  193.3050  148.3874    1.3905 O   0  0  0  0  0  0  0  0  0  0  0  0
  197.3170  153.9912   -1.0272 C   0  0  2  0  0  0  0  0  0  0  0  0
  197.5215  152.8222   -0.1290 C   0  0  0  0  0  0  0  0  0  0  0  0
  196.8744  152.6130    0.8862 O   0  0  0  0  0  0  0  0  0  0  0  0
  198.4991  151.9711   -0.6099 N   0  0  0  0  0  2  0  0  0  0  0  0
  198.8620  150.7769    0.1255 C   0  0  2  0  0  0  0  0  0  0  0  0
  199.9987  150.0300   -0.5407 C   0  0  2  0  0  0  0  0  0  0  0  0
  200.3368  148.7617    0.2149 C   0  0  0  0  0  3  0  0  0  0  0  0
  198.0747  148.7143    1.1193 O   0  0  0  0  0  0  0  0  0  0  0  0
  197.6778  149.7949    0.3474 C   0  0  1  0  0  0  0  0  0  0  0  0
  197.2669  149.5205   -0.7504 O   0  0  0  0  0  0  0  0  0  0  0  0
  199.3956  146.7052    1.3085 C   0  0  2  0  0  0  0  0  0  0  0  0
  200.0818  147.0405    2.5002 O   0  0  0  0  0  0  0  0  0  0  0  0
  201.1498  150.8551   -0.6058 O   0  0  0  0  0  0  0  0  0  0  0  0
  205.1906  150.5076    0.8212 C   0  0  2  0  0  0  0  0  0  0  0  0
  204.3419  149.4979    0.3171 C   0  0  1  0  0  0  0  0  0  0  0  0
  205.1375  148.3712   -0.3200 C   0  0  1  0  0  0  0  0  0  0  0  0
  204.1773  147.3110   -0.8194 C   0  0  1  0  0  0  0  0  0  0  0  0
  203.2587  146.8381    0.2902 C   0  0  2  0  0  0  0  0  0  0  0  0
  202.5669  148.0485    0.9020 C   0  0  1  0  0  0  0  0  0  0  0  0
  203.5107  149.0108    1.3738 O   0  0  0  0  0  0  0  0  0  0  0  0
  203.9995  146.1637    1.2959 O   0  0  0  0  0  0  0  0  0  0  0  0
  205.9028  148.8799   -1.3969 O   0  0  0  0  0  0  0  0  0  0  0  0
  200.4662  143.0172    1.4709 C   0  0  2  0  0  0  0  0  0  0  0  0
  201.5589  143.2809    0.4545 C   0  0  2  0  0  0  0  0  0  0  0  0
  202.5308  142.1140    0.4088 C   0  0  2  0  0  0  0  0  0  0  0  0
  203.6173  142.4168   -0.6027 C   0  0  2  0  0  0  0  0  0  0  0  0
  204.2908  143.7416   -0.3025 C   0  0  1  0  0  0  0  0  0  0  0  0
  203.2235  144.8235   -0.2109 C   0  0  1  0  0  0  0  0  0  0  0  0
  202.2325  144.5031    0.7662 O   0  0  0  0  0  0  0  0  0  0  0  0
  204.9961  143.6738    0.9275 O   0  0  0  0  0  0  0  0  0  0  0  0
  201.8399  140.9342    0.0414 O   0  0  0  0  0  0  0  0  0  0  0  0
  199.4346  143.9739    1.3279 O   0  0  0  0  0  0  0  0  0  0  0  0
  208.5240  145.5773    0.8152 C   0  0  2  0  0  0  0  0  0  0  0  0
  207.9352  144.1834    0.7324 C   0  0  2  0  0  0  0  0  0  0  0  0
  208.9671  143.2048    0.1974 C   0  0  2  0  0  0  0  0  0  0  0  0
  208.3421  141.8274    0.1117 C   0  0  1  0  0  0  0  0  0  0  0  0
  207.0665  141.8551   -0.7074 C   0  0  1  0  0  0  0  0  0  0  0  0
  206.1363  142.9124   -0.1289 C   0  0  1  0  0  0  0  0  0  0  0  0
  206.7617  144.1955   -0.0846 O   0  0  0  0  0  0  0  0  0  0  0  0
  207.3516  142.1720   -2.0614 O   0  0  0  0  0  0  0  0  0  0  0  0
  209.2553  140.8885   -0.4201 O   0  0  0  0  0  0  0  0  0  0  0  0
  210.0882  143.1769    1.0614 O   0  0  0  0  0  0  0  0  0  0  0  0
  207.6577  146.4232    1.5459 O   0  0  0  0  0  0  0  0  0  0  0  0
  207.2419  155.3396    0.0716 C   0  0  2  0  0  0  0  0  0  0  0  0
  207.4754  153.9000    0.5065 C   0  0  2  0  0  0  0  0  0  0  0  0
  208.9600  153.4678   -0.1969 C   0  0  2  0  0  0  0  0  0  0  0  0
  209.0010  151.9604    0.3477 C   0  0  2  0  0  0  0  0  0  0  0  0
  207.8095  151.1010   -0.0271 C   0  0  1  0  0  0  0  0  0  0  0  0
  206.5493  151.7354    0.5450 C   0  0  2  0  0  0  0  0  0  0  0  0
  206.3889  153.0821    0.0977 O   0  0  0  0  0  0  0  0  0  0  0  0
  207.6878  151.0074   -1.4383 O   0  0  0  0  0  0  0  0  0  0  0  0
  209.8648  154.2020    0.3801 O   0  0  0  0  0  0  0  0  0  0  0  0
  204.0059  154.9353   -0.0817 C   0  0  2  0  0  0  0  0  0  0  0  0
  203.7060  156.4173   -0.1830 C   0  0  1  0  0  0  0  0  0  0  0  0
  202.4027  156.7424    0.5270 C   0  0  1  0  0  0  0  0  0  0  0  0
  202.1420  158.2311    0.4213 C   0  0  2  0  0  0  0  0  0  0  0  0
  203.3197  159.0314    0.9420 C   0  0  2  0  0  0  0  0  0  0  0  0
  204.5785  158.5792    0.2147 C   0  0  2  0  0  0  0  0  0  0  0  0
  204.7921  157.1744    0.3573 O   0  0  0  0  0  0  0  0  0  0  0  0
  203.4843  158.8245    2.3366 O   0  0  0  0  0  0  0  0  0  0  0  0
  200.9566  158.5879    1.1037 O   0  0  0  0  0  0  0  0  0  0  0  0
  201.3426  156.0196   -0.0711 O   0  0  0  0  0  0  0  0  0  0  0  0
  205.0849  154.6030   -0.9333 O   0  0  0  0  0  0  0  0  0  0  0  0
  212.7939  153.9097    0.4553 C   0  0  2  0  0  0  0  0  0  0  0  0
  212.9222  152.4691    0.0028 C   0  0  1  0  0  0  0  0  0  0  0  0
  213.9291  151.7310    0.8686 C   0  0  1  0  0  0  0  0  0  0  0  0
  214.0206  150.2929    0.4011 C   0  0  2  0  0  0  0  0  0  0  0  0
  212.6547  149.6350    0.3836 C   0  0  2  0  0  0  0  0  0  0  0  0
  211.7107  150.4893   -0.4513 C   0  0  2  0  0  0  0  0  0  0  0  0
  211.6437  151.8297    0.0371 O   0  0  0  0  0  0  0  0  0  0  0  0
  212.1407  149.5205    1.7019 O   0  0  0  0  0  0  0  0  0  0  0  0
  214.9187  149.5544    1.2050 O   0  0  0  0  0  0  0  0  0  0  0  0
  215.1946  152.3572    0.7646 O   0  0  0  0  0  0  0  0  0  0  0  0
  212.0405  154.6455   -0.4887 O   0  0  0  0  0  0  0  0  0  0  0  0
  201.0176  148.7105    0.8546 O   0  0  0  0  0  0  0  0  0  0  0  0
  201.7272  148.8409    1.5470 O   0  0  0  0  0  0  0  0  0  0  0  0
  207.5769  152.8829    0.7592 O   0  0  0  0  0  0  0  0  0  0  0  0
  208.8277  153.4118   -0.1054 O   0  0  0  0  0  0  0  0  0  0  0  0
  208.1583  154.7873    0.0161 O   0  0  0  0  0  0  0  0  0  0  0  0
  208.0507  153.0833    0.4317 O   0  0  0  0  0  0  0  0  0  0  0  0
  208.2687  153.8012   -0.1076 O   0  0  0  0  0  0  0  0  0  0  0  0
  188.4802  151.5680    0.0029 H   0  0  0  0  0  0  0  0  0  0  0  0
  189.2593  151.6087    1.5664 H   0  0  0  0  0  0  0  0  0  0  0  0
  188.9230  150.0762    0.7975 H   0  0  0  0  0  0  0  0  0  0  0  0
  192.8239  149.8997   -0.6715 H   0  0  0  0  0  0  0  0  0  0  0  0
  193.7513  150.2327    2.1463 H   0  0  0  0  0  0  0  0  0  0  0  0
  194.7744  148.7076    0.5381 H   0  0  0  0  0  0  0  0  0  0  0  0
  195.6891  151.6462    1.2073 H   0  0  0  0  0  0  0  0  0  0  0  0
  192.8674  152.2977   -0.8197 H   0  0  0  0  0  0  0  0  0  0  0  0
  194.0734  152.2247    1.7620 H   0  0  0  0  0  0  0  0  0  0  0  0
  197.7755  150.7759    0.5150 H   0  0  0  0  0  0  0  0  0  0  0  0
  197.3255  151.9842   -0.6383 H   0  0  0  0  0  0  0  0  0  0  0  0
  196.7085  149.0074   -1.2221 H   0  0  0  0  0  0  0  0  0  0  0  0
  193.3322  147.9125    0.5109 H   0  0  0  0  0  0  0  0  0  0  0  0
  196.5467  154.6144   -0.6231 H   0  0  0  0  0  0  0  0  0  0  0  0
  197.0316  153.6590   -2.0035 H   0  0  0  0  0  0  0  0  0  0  0  0
  198.2286  154.5477   -1.0922 H   0  0  0  0  0  0  0  0  0  0  0  0
  199.1895  151.1205    1.0844 H   0  0  0  0  0  0  0  0  0  0  0  0
  199.6866  149.7689   -1.5303 H   0  0  0  0  0  0  0  0  0  0  0  0
  200.6145  148.0308   -0.5155 H   0  0  0  0  0  0  0  0  0  0  0  0
  198.4762  148.8634    2.0230 H   0  0  0  0  0  0  0  0  0  0  0  0
  196.6738  149.9642   -1.5107 H   0  0  0  0  0  0  0  0  0  0  0  0
  199.9085  147.1211    0.4666 H   0  0  0  0  0  0  0  0  0  0  0  0
  198.3982  147.0910    1.3447 H   0  0  0  0  0  0  0  0  0  0  0  0
  199.3426  145.6734    1.2037 H   0  0  0  0  0  0  0  0  0  0  0  0
  200.1126  148.0362    2.5871 H   0  0  0  0  0  0  0  0  0  0  0  0
  201.4314  151.0922    0.3239 H   0  0  0  0  0  0  0  0  0  0  0  0
  205.9579  149.9454    1.3804 H   0  0  0  0  0  0  0  0  0  0  0  0
  204.4490  151.2491    0.8811 H   0  0  0  0  0  0  0  0  0  0  0  0
  203.7113  149.9215   -0.4365 H   0  0  0  0  0  0  0  0  0  0  0  0
  205.8030  147.9410    0.3990 H   0  0  0  0  0  0  0  0  0  0  0  0
  203.8294  146.6015   -1.5408 H   0  0  0  0  0  0  0  0  0  0  0  0
  202.5378  146.1582   -0.1135 H   0  0  0  0  0  0  0  0  0  0  0  0
  201.9645  147.2151    0.6062 H   0  0  0  0  0  0  0  0  0  0  0  0
  204.6755  146.7938    1.6777 H   0  0  0  0  0  0  0  0  0  0  0  0
  205.2845  149.2830   -2.0716 H   0  0  0  0  0  0  0  0  0  0  0  0
  200.8766  143.0734    2.4575 H   0  0  0  0  0  0  0  0  0  0  0  0
  200.0573  142.0419    1.3078 H   0  0  0  0  0  0  0  0  0  0  0  0
  201.1185  143.3796   -0.5157 H   0  0  0  0  0  0  0  0  0  0  0  0
  202.9707  141.9662    1.3729 H   0  0  0  0  0  0  0  0  0  0  0  0
  203.5486  141.4988   -1.1480 H   0  0  0  0  0  0  0  0  0  0  0  0
  204.9885  143.9679   -1.0815 H   0  0  0  0  0  0  0  0  0  0  0  0
  202.5758  144.9209   -1.0570 H   0  0  0  0  0  0  0  0  0  0  0  0
  204.3495  143.4624    1.6605 H   0  0  0  0  0  0  0  0  0  0  0  0
  201.4270  141.0679   -0.8595 H   0  0  0  0  0  0  0  0  0  0  0  0
  199.8355  144.8524    1.4919 H   0  0  0  0  0  0  0  0  0  0  0  0
  208.6596  145.9658   -0.1725 H   0  0  0  0  0  0  0  0  0  0  0  0
  209.4684  145.5347    1.3163 H   0  0  0  0  0  0  0  0  0  0  0  0
  207.6561  143.8622    1.7142 H   0  0  0  0  0  0  0  0  0  0  0  0
  209.2925  143.5111   -0.7748 H   0  0  0  0  0  0  0  0  0  0  0  0
  208.0930  141.5201    1.1059 H   0  0  0  0  0  0  0  0  0  0  0  0
  206.6045  140.8906   -0.6748 H   0  0  0  0  0  0  0  0  0  0  0  0
  205.3721  142.1873    0.0584 H   0  0  0  0  0  0  0  0  0  0  0  0
  207.7839  143.0729   -2.0992 H   0  0  0  0  0  0  0  0  0  0  0  0
  209.4974  141.1633   -1.3505 H   0  0  0  0  0  0  0  0  0  0  0  0
  209.7886  142.8909    1.9717 H   0  0  0  0  0  0  0  0  0  0  0  0
  206.7746  146.4639    1.0786 H   0  0  0  0  0  0  0  0  0  0  0  0
  207.3606  156.1727    0.7325 H   0  0  0  0  0  0  0  0  0  0  0  0
  206.5847  155.9639   -0.4969 H   0  0  0  0  0  0  0  0  0  0  0  0
  207.5637  153.8662    1.5645 H   0  0  0  0  0  0  0  0  0  0  0  0
  208.7664  153.4508   -1.1515 H   0  0  0  0  0  0  0  0  0  0  0  0
  209.7957  151.3075    0.6427 H   0  0  0  0  0  0  0  0  0  0  0  0
  207.9461  150.1159    0.3676 H   0  0  0  0  0  0  0  0  0  0  0  0
  205.9775  151.0891    1.0279 H   0  0  0  0  0  0  0  0  0  0  0  0
  207.5598  151.9253   -1.8139 H   0  0  0  0  0  0  0  0  0  0  0  0
  209.8958  154.1557    1.3786 H   0  0  0  0  0  0  0  0  0  0  0  0
  203.1381  154.3764   -0.3637 H   0  0  0  0  0  0  0  0  0  0  0  0
  204.2750  154.6955    0.9258 H   0  0  0  0  0  0  0  0  0  0  0  0
  203.5934  156.6823   -1.2135 H   0  0  0  0  0  0  0  0  0  0  0  0
  202.4679  156.4629    1.5578 H   0  0  0  0  0  0  0  0  0  0  0  0
  202.0111  158.4663   -0.6143 H   0  0  0  0  0  0  0  0  0  0  0  0
  203.1420  160.0728    0.7724 H   0  0  0  0  0  0  0  0  0  0  0  0
  204.6582  159.5728   -0.1743 H   0  0  0  0  0  0  0  0  0  0  0  0
  203.6509  157.8525    2.5024 H   0  0  0  0  0  0  0  0  0  0  0  0
  201.0646  158.3733    2.0745 H   0  0  0  0  0  0  0  0  0  0  0  0
  201.2779  156.2778   -1.0351 H   0  0  0  0  0  0  0  0  0  0  0  0
  204.8349  154.8267   -1.8753 H   0  0  0  0  0  0  0  0  0  0  0  0
  213.7686  154.3401    0.5538 H   0  0  0  0  0  0  0  0  0  0  0  0
  212.2908  153.9421    1.3991 H   0  0  0  0  0  0  0  0  0  0  0  0
  213.2793  152.4492   -1.0056 H   0  0  0  0  0  0  0  0  0  0  0  0
  213.6188  151.7554    1.8923 H   0  0  0  0  0  0  0  0  0  0  0  0
  214.4004  150.2991   -0.5992 H   0  0  0  0  0  0  0  0  0  0  0  0
  212.7405  148.6534   -0.0335 H   0  0  0  0  0  0  0  0  0  0  0  0
  211.7848  149.6851   -1.1532 H   0  0  0  0  0  0  0  0  0  0  0  0
  212.0580  150.4350    2.0978 H   0  0  0  0  0  0  0  0  0  0  0  0
  214.5760  149.5401    2.1443 H   0  0  0  0  0  0  0  0  0  0  0  0
  215.4886  152.3367   -0.1909 H   0  0  0  0  0  0  0  0  0  0  0  0
  212.5096  154.6162   -1.3713 H   0  0  0  0  0  0  0  0  0  0  0  0
  1  2  1  0
  1 96  1  6
  1 97  1  0
  1 98  1  0
  2  3  2  0
  2  4  1  0
  5  4  1  0
  5  6  1  0
  5 99  1  6
  6  7  1  0
  6 14  1  0
  6100  1  1
  7  8  1  0
  7 89  1  0
  7101  1  6
  8  9  1  0
  8 12  1  0
  8102  1  1
  9 10  1  0
 10 11  1  0
 10  5  1  0
 10103  1  6
 11104  1  0
 12 13  1  0
 12105  1  1
 12106  1  0
 13107  1  0
 14108  1  0
 15 16  1  0
 15109  1  1
 15110  1  0
 15111  1  0
 16 17  2  0
 16 18  1  0
 19 18  1  0
 19 20  1  0
 19112  1  1
 20 21  1  0
 20 27  1  0
 20113  1  6
 21 90  1  0
 21114  1  0
 23 22  1  6
 22115  1  0
 23 24  1  0
 23 19  1  0
 23 89  1  0
 24116  1  0
 25 26  1  0
 25117  1  6
 25118  1  0
 25119  1  0
 26120  1  0
 27121  1  0
 28122  1  1
 28123  1  0
 29 28  1  0
 29 30  1  0
 29124  1  6
 30 31  1  0
 30 36  1  0
 30125  1  1
 31 32  1  0
 31 91  1  0
 31126  1  6
 32 33  1  0
 32 35  1  0
 32127  1  6
 33 34  1  0
 33 90  1  0
 33128  1  1
 34 29  1  0
 35129  1  0
 36130  1  0
 37 46  1  0
 37131  1  1
 37132  1  0
 38 37  1  0
 38 39  1  0
 38133  1  6
 39 40  1  0
 39 45  1  0
 39134  1  1
 40 41  1  0
 40 92  1  0
 40135  1  6
 41 42  1  0
 41 44  1  0
 41136  1  6
 42 43  1  0
 42 91  1  0
 42137  1  6
 43 38  1  0
 44138  1  0
 45139  1  0
 46140  1  0
 47 57  1  0
 47141  1  6
 47142  1  0
 48 47  1  0
 48 49  1  0
 48143  1  1
 49 50  1  0
 49 56  1  0
 49144  1  6
 50 51  1  0
 50 55  1  0
 50145  1  1
 51 52  1  0
 51 54  1  0
 51146  1  6
 52 53  1  0
 52 92  1  0
 52147  1  1
 53 48  1  0
 54148  1  0
 55149  1  0
 56150  1  0
 57151  1  0
 58152  1  1
 58153  1  0
 59 58  1  0
 59 60  1  0
 59154  1  1
 60 61  1  0
 60 66  1  0
 60155  1  6
 61 62  1  0
 61 94  1  0
 61156  1  1
 62 63  1  0
 62 65  1  0
 62157  1  1
 63 64  1  0
 63 93  1  0
 63158  1  1
 64 59  1  0
 65159  1  0
 66160  1  0
 67 77  1  0
 67161  1  6
 67162  1  0
 68 67  1  0
 68 69  1  0
 68163  1  6
 69 70  1  0
 69 76  1  0
 69164  1  1
 70 71  1  0
 70 75  1  0
 70165  1  6
 71 72  1  0
 71 74  1  0
 71166  1  1
 72 73  1  0
 72 94  1  0
 72167  1  6
 73 68  1  0
 74168  1  0
 75169  1  0
 76170  1  0
 77171  1  0
 78 88  1  0
 78172  1  1
 78173  1  0
 79 78  1  0
 79 80  1  0
 79174  1  6
 80 81  1  0
 80 87  1  0
 80175  1  1
 81 82  1  0
 81 86  1  0
 81176  1  6
 82 83  1  0
 82 85  1  0
 82177  1  6
 83 84  1  0
 83 95  1  0
 83178  1  6
 84 79  1  0
 85179  1  0
 86180  1  0
 87181  1  0
 88182  1  0
 93 28  1  0
 95 58  1  0
M  RAD  3   4   2  18   2  21   2
M  END
$$$$
