chair_1C4_beta_rank1_Q0.795_theta174.7_phi45.0_E15.2
     RDKit          3D

 95100  0  0  0  0  0  0  0  0999 V2000
  189.2065  151.0942    0.6297 C   0  0  0  0  0  0  0  0  0  0  0  0
  190.5428  151.1356   -0.0373 C   0  0  0  0  0  0  0  0  0  0  0  0
  190.7376  151.6494   -1.1322 O   0  0  0  0  0  0  0  0  0  0  0  0
  191.5164  150.5392    0.7256 N   0  0  0  0  0  2  0  0  0  0  0  0
  192.8791  150.4547    0.2416 C   0  0  2  0  0  0  0  0  0  0  0  0
  193.7753  149.7129    1.2114 C   0  0  2  0  0  0  0  0  0  0  0  0
  195.2047  149.6715    0.7129 C   0  0  1  0  0  0  0  0  0  0  0  0
  195.6799  151.0574    0.3139 C   0  0  2  0  0  0  0  0  0  0  0  0
  194.7935  151.6621   -0.6291 O   0  0  0  0  0  0  0  0  0  0  0  0
  193.4825  151.8195   -0.0863 C   0  0  0  0  0  0  0  0  0  0  0  0
  193.5113  152.6462    1.0716 O   0  0  0  0  0  0  0  0  0  0  0  0
  197.0847  151.0244   -0.2600 C   0  0  0  0  0  0  0  0  0  0  0  0
  197.1666  150.0950   -1.3309 O   0  0  0  0  0  0  0  0  0  0  0  0
  193.3054  148.3803    1.3773 O   0  0  0  0  0  0  0  0  0  0  0  0
  197.3170  153.9912   -1.0272 C   0  0  0  0  0  0  0  0  0  0  0  0
  197.5182  152.8080   -0.1376 C   0  0  0  0  0  0  0  0  0  0  0  0
  196.8744  152.6130    0.8862 O   0  0  0  0  0  0  0  0  0  0  0  0
  198.4991  151.9711   -0.6099 N   0  0  0  0  0  2  0  0  0  0  0  0
  198.8620  150.7769    0.1255 C   0  0  2  0  0  0  0  0  0  0  0  0
  199.9987  150.0300   -0.5407 C   0  0  2  0  0  0  0  0  0  0  0  0
  200.3368  148.7617    0.2149 C   0  0  0  0  0  3  0  0  0  0  0  0
  198.0873  148.7190    1.1478 O   0  0  0  0  0  0  0  0  0  0  0  0
  197.6817  149.8341    0.3541 C   0  0  0  0  0  0  0  0  0  0  0  0
  197.1395  149.3995   -0.8877 O   0  0  0  0  0  0  0  0  0  0  0  0
  199.3956  146.7052    1.3085 C   0  0  0  0  0  0  0  0  0  0  0  0
  200.0823  147.0554    2.5015 O   0  0  0  0  0  0  0  0  0  0  0  0
  201.1540  150.8587   -0.5919 O   0  0  0  0  0  0  0  0  0  0  0  0
  205.2749  150.5699    0.8433 C   0  0  0  0  0  0  0  0  0  0  0  0
  204.3419  149.4979    0.3171 C   0  0  1  0  0  0  0  0  0  0  0  0
  205.1375  148.3712   -0.3200 C   0  0  1  0  0  0  0  0  0  0  0  0
  204.1773  147.3110   -0.8194 C   0  0  1  0  0  0  0  0  0  0  0  0
  203.2587  146.8381    0.2902 C   0  0  2  0  0  0  0  0  0  0  0  0
  202.5669  148.0485    0.9020 C   0  0  0  0  0  0  0  0  0  0  0  0
  203.5107  149.0108    1.3738 O   0  0  0  0  0  0  0  0  0  0  0  0
  204.0096  146.1731    1.3016 O   0  0  0  0  0  0  0  0  0  0  0  0
  205.8935  148.8859   -1.4070 O   0  0  0  0  0  0  0  0  0  0  0  0
  200.4662  143.0172    1.4709 C   0  0  0  0  0  0  0  0  0  0  0  0
  201.5589  143.2809    0.4545 C   0  0  2  0  0  0  0  0  0  0  0  0
  202.5308  142.1140    0.4088 C   0  0  2  0  0  0  0  0  0  0  0  0
  203.6173  142.4168   -0.6027 C   0  0  2  0  0  0  0  0  0  0  0  0
  204.2908  143.7416   -0.3025 C   0  0  1  0  0  0  0  0  0  0  0  0
  203.2235  144.8235   -0.2109 C   0  0  0  0  0  0  0  0  0  0  0  0
  202.2325  144.5031    0.7662 O   0  0  0  0  0  0  0  0  0  0  0  0
  204.9864  143.6706    0.9385 O   0  0  0  0  0  0  0  0  0  0  0  0
  201.8337  140.9362    0.0279 O   0  0  0  0  0  0  0  0  0  0  0  0
  199.4403  143.9876    1.3302 O   0  0  0  0  0  0  0  0  0  0  0  0
  208.5240  145.5773    0.8152 C   0  0  0  0  0  0  0  0  0  0  0  0
  207.9352  144.1834    0.7324 C   0  0  2  0  0  0  0  0  0  0  0  0
  208.9671  143.2048    0.1974 C   0  0  2  0  0  0  0  0  0  0  0  0
  208.3421  141.8274    0.1117 C   0  0  1  0  0  0  0  0  0  0  0  0
  207.0665  141.8551   -0.7074 C   0  0  1  0  0  0  0  0  0  0  0  0
  206.1363  142.9124   -0.1289 C   0  0  0  0  0  0  0  0  0  0  0  0
  206.7617  144.1955   -0.0846 O   0  0  0  0  0  0  0  0  0  0  0  0
  207.3581  142.1855   -2.0620 O   0  0  0  0  0  0  0  0  0  0  0  0
  209.2589  140.8926   -0.4340 O   0  0  0  0  0  0  0  0  0  0  0  0
  210.0837  143.1726    1.0751 O   0  0  0  0  0  0  0  0  0  0  0  0
  207.6445  146.4238    1.5389 O   0  0  0  0  0  0  0  0  0  0  0  0
  207.2419  155.3396    0.0716 C   0  0  0  0  0  0  0  0  0  0  0  0
  207.4868  153.9061    0.4980 C   0  0  2  0  0  0  0  0  0  0  0  0
  208.7955  153.3982   -0.0832 C   0  0  2  0  0  0  0  0  0  0  0  0
  209.0010  151.9604    0.3477 C   0  0  2  0  0  0  0  0  0  0  0  0
  207.8095  151.1010   -0.0271 C   0  0  1  0  0  0  0  0  0  0  0  0
  206.5493  151.7354    0.5450 C   0  0  0  0  0  0  0  0  0  0  0  0
  206.3889  153.0821    0.0977 O   0  0  0  0  0  0  0  0  0  0  0  0
  207.6859  151.0212   -1.4439 O   0  0  0  0  0  0  0  0  0  0  0  0
  209.8653  154.2013    0.3951 O   0  0  0  0  0  0  0  0  0  0  0  0
  204.0059  154.9353   -0.0817 C   0  0  0  0  0  0  0  0  0  0  0  0
  203.7060  156.4173   -0.1830 C   0  0  1  0  0  0  0  0  0  0  0  0
  202.4027  156.7424    0.5270 C   0  0  1  0  0  0  0  0  0  0  0  0
  202.1420  158.2311    0.4213 C   0  0  2  0  0  0  0  0  0  0  0  0
  203.3197  159.0314    0.9420 C   0  0  2  0  0  0  0  0  0  0  0  0
  204.5785  158.5792    0.2147 C   0  0  0  0  0  0  0  0  0  0  0  0
  204.7921  157.1744    0.3573 O   0  0  0  0  0  0  0  0  0  0  0  0
  203.4868  158.8099    2.3391 O   0  0  0  0  0  0  0  0  0  0  0  0
  200.9582  158.5847    1.1183 O   0  0  0  0  0  0  0  0  0  0  0  0
  201.3416  156.0235   -0.0856 O   0  0  0  0  0  0  0  0  0  0  0  0
  205.0812  154.6064   -0.9474 O   0  0  0  0  0  0  0  0  0  0  0  0
  212.7939  153.9097    0.4553 C   0  0  0  0  0  0  0  0  0  0  0  0
  212.9222  152.4691    0.0028 C   0  0  1  0  0  0  0  0  0  0  0  0
  213.9291  151.7310    0.8686 C   0  0  1  0  0  0  0  0  0  0  0  0
  214.0206  150.2929    0.4011 C   0  0  2  0  0  0  0  0  0  0  0  0
  212.6547  149.6350    0.3836 C   0  0  2  0  0  0  0  0  0  0  0  0
  211.7107  150.4893   -0.4513 C   0  0  0  0  0  0  0  0  0  0  0  0
  211.6437  151.8297    0.0371 O   0  0  0  0  0  0  0  0  0  0  0  0
  212.1395  149.5342    1.7078 O   0  0  0  0  0  0  0  0  0  0  0  0
  214.9136  149.5542    1.2191 O   0  0  0  0  0  0  0  0  0  0  0  0
  215.1990  152.3569    0.7503 O   0  0  0  0  0  0  0  0  0  0  0  0
  212.0475  154.6451   -0.5019 O   0  0  0  0  0  0  0  0  0  0  0  0
  201.3724  148.7757    1.2008 O   0  0  0  0  0  0  0  0  0  0  0  0
  201.3724  148.7757    1.2008 O   0  0  0  0  0  0  0  0  0  0  0  0
  208.2066  153.1492    0.3239 O   0  0  0  0  0  0  0  0  0  0  0  0
  208.2066  153.1492    0.3239 O   0  0  0  0  0  0  0  0  0  0  0  0
  208.2078  154.2912   -0.0415 O   0  0  0  0  0  0  0  0  0  0  0  0
  208.2066  153.1492    0.3239 O   0  0  0  0  0  0  0  0  0  0  0  0
  208.2078  154.2912   -0.0415 O   0  0  0  0  0  0  0  0  0  0  0  0
  1  2  1  0
  2  3  2  0
  2  4  1  0
  5  4  1  1
  5  6  1  0
  6  7  1  0
  7  8  1  0
  8  9  1  0
  9 10  1  0
 10 11  1  0
  8 12  1  6
 12 13  1  0
  6 14  1  6
 10  5  1  0
 15 16  1  0
 16 17  2  0
 16 18  1  0
 19 18  1  6
 19 20  1  0
 20 21  1  0
 22 23  1  0
 23 24  1  0
 25 26  1  0
 20 27  1  1
 23 19  1  0
 29 28  1  6
 29 30  1  0
 30 31  1  0
 31 32  1  0
 32 33  1  0
 33 34  1  0
 32 35  1  6
 30 36  1  1
 34 29  1  0
 38 37  1  1
 38 39  1  0
 39 40  1  0
 40 41  1  0
 41 42  1  0
 42 43  1  0
 41 44  1  1
 39 45  1  6
 37 46  1  0
 43 38  1  0
 48 47  1  6
 48 49  1  0
 49 50  1  0
 50 51  1  0
 51 52  1  0
 52 53  1  0
 51 54  1  6
 50 55  1  6
 49 56  1  1
 47 57  1  0
 53 48  1  0
 59 58  1  6
 59 60  1  0
 60 61  1  0
 61 62  1  0
 62 63  1  0
 63 64  1  0
 62 65  1  6
 60 66  1  1
 64 59  1  0
 68 67  1  6
 68 69  1  0
 69 70  1  0
 70 71  1  0
 71 72  1  0
 72 73  1  0
 71 74  1  6
 70 75  1  6
 69 76  1  1
 67 77  1  0
 73 68  1  0
 79 78  1  6
 79 80  1  0
 80 81  1  0
 81 82  1  0
 82 83  1  0
 83 84  1  0
 82 85  1  6
 81 86  1  6
 80 87  1  1
 78 88  1  0
 84 79  1  0
 23 89  1  0
  7 89  1  1
 33 90  1  0
 21 90  1  1
 42 91  1  0
 31 91  1  6
 52 92  1  0
 40 92  1  1
 63 93  1  0
 93 28  1  0
 72 94  1  0
 61 94  1  6
 83 95  1  0
 95 58  1  0
M  END
