chair_1C4_beta_rank1_Q0.795_theta174.7_phi45.0_E15.2
     RDKit          3D

182187  0  0  0  0  0  0  0  0999 V2000
  189.4177  148.7849    1.1662 C   0  0  2  0  0  0  0  0  0  0  0  0
  190.7454  148.2860    0.6478 C   0  0  0  0  0  0  0  0  0  0  0  0
  190.8174  147.6448   -0.3995 O   0  0  0  0  0  0  0  0  0  0  0  0
  191.7614  148.6556    1.4266 N   0  0  0  0  0  2  0  0  0  0  0  0
  192.6371  149.6607    0.7535 C   0  0  2  0  0  0  0  0  0  0  0  0
  194.0088  149.7304    1.4610 C   0  0  2  0  0  0  0  0  0  0  0  0
  194.8906  150.7993    0.7965 C   0  0  1  0  0  0  0  0  0  0  0  0
  194.1272  152.1291    0.8284 C   0  0  2  0  0  0  0  0  0  0  0  0
  192.8876  152.0251    0.1043 O   0  0  0  0  0  0  0  0  0  0  0  0
  192.0066  151.0711    0.6876 C   0  0  2  0  0  0  0  0  0  0  0  0
  191.6070  151.5500    1.9681 O   0  0  0  0  0  0  0  0  0  0  0  0
  194.9266  153.3005    0.2454 C   0  0  2  0  0  0  0  0  0  0  0  0
  195.6794  152.9716   -0.9204 O   0  0  0  0  0  0  0  0  0  0  0  0
  194.6390  148.4352    1.3611 O   0  0  0  0  0  0  0  0  0  0  0  0
  198.0630  154.7357    1.0876 C   0  0  2  0  0  0  0  0  0  0  0  0
  198.7506  153.4335    1.4096 C   0  0  0  0  0  0  0  0  0  0  0  0
  199.5693  153.3840    2.3254 O   0  0  0  0  0  0  0  0  0  0  0  0
  198.3834  152.4564    0.5754 N   0  0  0  0  0  2  0  0  0  0  0  0
  198.5586  151.0495    1.1498 C   0  0  2  0  0  0  0  0  0  0  0  0
  199.7968  150.3455    0.4789 C   0  0  2  0  0  0  0  0  0  0  0  0
  200.6385  149.4814    1.3837 C   0  0  0  0  0  3  0  0  0  0  0  0
  197.3519  149.0046    1.7566 O   0  0  0  0  0  0  0  0  0  0  0  0
  197.2404  150.1820    0.9860 C   0  0  2  0  0  0  0  0  0  0  0  0
  197.1212  149.7731   -0.3597 O   0  0  0  0  0  0  0  0  0  0  0  0
  199.5471  146.0454    1.2002 C   0  0  2  0  0  0  0  0  0  0  0  0
  200.6542  146.8999    1.4211 O   0  0  0  0  0  0  0  0  0  0  0  0
  200.6715  151.3163   -0.1141 O   0  0  0  0  0  0  0  0  0  0  0  0
  205.6875  151.0861    1.7484 C   0  0  2  0  0  0  0  0  0  0  0  0
  204.6226  150.7030    0.6839 C   0  0  1  0  0  0  0  0  0  0  0  0
  204.7708  149.2854    0.1057 C   0  0  1  0  0  0  0  0  0  0  0  0
  203.8456  148.2297    0.7432 C   0  0  2  0  0  0  0  0  0  0  0  0
  203.3892  148.6240    2.1523 C   0  0  2  0  0  0  0  0  0  0  0  0
  202.8165  150.0614    2.1859 C   0  0  1  0  0  0  0  0  0  0  0  0
  203.2666  150.8839    1.1045 O   0  0  0  0  0  0  0  0  0  0  0  0
  204.5361  148.5238    3.0347 O   0  0  0  0  0  0  0  0  0  0  0  0
  204.4458  149.3208   -1.3062 O   0  0  0  0  0  0  0  0  0  0  0  0
  200.8901  144.1776    1.3849 C   0  0  2  0  0  0  0  0  0  0  0  0
  202.2788  144.2735    0.7456 C   0  0  2  0  0  0  0  0  0  0  0  0
  203.2261  143.1584    1.2210 C   0  0  2  0  0  0  0  0  0  0  0  0
  204.5762  143.3054    0.4939 C   0  0  1  0  0  0  0  0  0  0  0  0
  205.1037  144.7395    0.6203 C   0  0  1  0  0  0  0  0  0  0  0  0
  204.0261  145.8256    0.3536 C   0  0  1  0  0  0  0  0  0  0  0  0
  202.8323  145.5570    1.0811 O   0  0  0  0  0  0  0  0  0  0  0  0
  205.6414  144.9501    1.9522 O   0  0  0  0  0  0  0  0  0  0  0  0
  202.6899  141.8651    0.9078 O   0  0  0  0  0  0  0  0  0  0  0  0
  199.9940  145.0642    0.7183 O   0  0  0  0  0  0  0  0  0  0  0  0
  209.1809  144.3998    0.3975 C   0  0  2  0  0  0  0  0  0  0  0  0
  208.2993  143.2240    0.8471 C   0  0  2  0  0  0  0  0  0  0  0  0
  209.1392  142.0201    1.2729 C   0  0  2  0  0  0  0  0  0  0  0  0
  208.1913  140.9095    1.7362 C   0  0  1  0  0  0  0  0  0  0  0  0
  207.1574  140.5846    0.6532 C   0  0  1  0  0  0  0  0  0  0  0  0
  206.4574  141.8587    0.1236 C   0  0  2  0  0  0  0  0  0  0  0  0
  207.4290  142.8449   -0.2409 O   0  0  0  0  0  0  0  0  0  0  0  0
  207.8603  139.8953   -0.4082 O   0  0  0  0  0  0  0  0  0  0  0  0
  208.9873  139.7461    2.0378 O   0  0  0  0  0  0  0  0  0  0  0  0
  210.0426  142.3449    2.3316 O   0  0  0  0  0  0  0  0  0  0  0  0
  208.4013  145.5818    0.1942 O   0  0  0  0  0  0  0  0  0  0  0  0
  210.7220  153.6685    1.6749 C   0  0  2  0  0  0  0  0  0  0  0  0
  209.3909  153.6793    0.8862 C   0  0  2  0  0  0  0  0  0  0  0  0
  208.8102  155.1111    0.8427 C   0  0  1  0  0  0  0  0  0  0  0  0
  207.3637  155.1517    0.2948 C   0  0  1  0  0  0  0  0  0  0  0  0
  206.9809  153.7793   -0.2852 C   0  0  1  0  0  0  0  0  0  0  0  0
  207.2332  152.6058    0.6956 C   0  0  1  0  0  0  0  0  0  0  0  0
  208.4514  152.7508    1.4533 O   0  0  0  0  0  0  0  0  0  0  0  0
  205.6879  153.7670   -0.8753 O   0  0  0  0  0  0  0  0  0  0  0  0
  208.8910  155.7557    2.1209 O   0  0  0  0  0  0  0  0  0  0  0  0
  202.1472  154.1262    0.5815 C   0  0  2  0  0  0  0  0  0  0  0  0
  203.0094  155.3817    0.4897 C   0  0  1  0  0  0  0  0  0  0  0  0
  202.4041  156.5894    1.2238 C   0  0  1  0  0  0  0  0  0  0  0  0
  203.4097  157.7547    1.1810 C   0  0  2  0  0  0  0  0  0  0  0  0
  204.7805  157.3193    1.7134 C   0  0  2  0  0  0  0  0  0  0  0  0
  205.2393  156.1110    0.8675 C   0  0  2  0  0  0  0  0  0  0  0  0
  204.3007  155.0556    1.0410 O   0  0  0  0  0  0  0  0  0  0  0  0
  204.7000  156.9574    3.1067 O   0  0  0  0  0  0  0  0  0  0  0  0
  202.8901  158.8898    1.8875 O   0  0  0  0  0  0  0  0  0  0  0  0
  201.2050  157.0631    0.5994 O   0  0  0  0  0  0  0  0  0  0  0  0
  202.6833  153.1543   -0.3198 O   0  0  0  0  0  0  0  0  0  0  0  0
  214.4191  153.9961    1.2345 C   0  0  2  0  0  0  0  0  0  0  0  0
  214.1667  152.7337    0.4000 C   0  0  1  0  0  0  0  0  0  0  0  0
  214.4972  151.4656    1.1962 C   0  0  1  0  0  0  0  0  0  0  0  0
  213.8142  150.2830    0.5193 C   0  0  2  0  0  0  0  0  0  0  0  0
  212.2989  150.4541    0.5876 C   0  0  2  0  0  0  0  0  0  0  0  0
  211.8605  151.9352    0.4190 C   0  0  2  0  0  0  0  0  0  0  0  0
  212.8448  152.7745   -0.1806 O   0  0  0  0  0  0  0  0  0  0  0  0
  211.8413  149.9065    1.8473 O   0  0  0  0  0  0  0  0  0  0  0  0
  214.2177  149.0686    1.1779 O   0  0  0  0  0  0  0  0  0  0  0  0
  215.9134  151.2431    1.2304 O   0  0  0  0  0  0  0  0  0  0  0  0
  214.2355  155.1566    0.4201 O   0  0  0  0  0  0  0  0  0  0  0  0
  196.1427  150.9543    1.4741 O   0  0  0  0  0  0  0  0  0  0  0  0
  201.3874  150.0814    2.3746 O   0  0  0  0  0  0  0  0  0  0  0  0
  204.6367  147.0233    0.8479 O   0  0  0  0  0  0  0  0  0  0  0  0
  205.5049  142.3435    1.0594 O   0  0  0  0  0  0  0  0  0  0  0  0
  206.1278  152.4530    1.5927 O   0  0  0  0  0  0  0  0  0  0  0  0
  206.5114  155.6605    1.3351 O   0  0  0  0  0  0  0  0  0  0  0  0
  211.4223  152.4145    1.6918 O   0  0  0  0  0  0  0  0  0  0  0  0
  188.6482  148.0308    0.9725 H   0  0  0  0  0  0  0  0  0  0  0  0
  189.1501  149.7058    0.6374 H   0  0  0  0  0  0  0  0  0  0  0  0
  189.4371  148.9818    2.2415 H   0  0  0  0  0  0  0  0  0  0  0  0
  192.8488  149.3447   -0.2806 H   0  0  0  0  0  0  0  0  0  0  0  0
  193.8995  149.9373    2.5332 H   0  0  0  0  0  0  0  0  0  0  0  0
  195.0296  150.5275   -0.2553 H   0  0  0  0  0  0  0  0  0  0  0  0
  193.8968  152.4117    1.8651 H   0  0  0  0  0  0  0  0  0  0  0  0
  191.1136  151.0369    0.0511 H   0  0  0  0  0  0  0  0  0  0  0  0
  190.7961  152.0474    1.7958 H   0  0  0  0  0  0  0  0  0  0  0  0
  195.6131  153.6724    1.0048 H   0  0  0  0  0  0  0  0  0  0  0  0
  194.2543  154.1213   -0.0237 H   0  0  0  0  0  0  0  0  0  0  0  0
  196.5070  152.5514   -0.5817 H   0  0  0  0  0  0  0  0  0  0  0  0
  193.8535  147.8411    1.4111 H   0  0  0  0  0  0  0  0  0  0  0  0
  197.2203  154.8758    1.7674 H   0  0  0  0  0  0  0  0  0  0  0  0
  197.7285  154.7857    0.0472 H   0  0  0  0  0  0  0  0  0  0  0  0
  198.7640  155.5563    1.2515 H   0  0  0  0  0  0  0  0  0  0  0  0
  198.7389  151.1003    2.2305 H   0  0  0  0  0  0  0  0  0  0  0  0
  199.4745  149.7151   -0.3578 H   0  0  0  0  0  0  0  0  0  0  0  0
  200.1262  148.6229    1.8096 H   0  0  0  0  0  0  0  0  0  0  0  0
  196.4125  148.7573    1.8799 H   0  0  0  0  0  0  0  0  0  0  0  0
  196.5293  149.0058   -0.2921 H   0  0  0  0  0  0  0  0  0  0  0  0
  199.3800  145.9341    0.1265 H   0  0  0  0  0  0  0  0  0  0  0  0
  198.6588  146.4682    1.6765 H   0  0  0  0  0  0  0  0  0  0  0  0
  199.7608  145.0669    1.6371 H   0  0  0  0  0  0  0  0  0  0  0  0
  200.4353  147.7596    1.0231 H   0  0  0  0  0  0  0  0  0  0  0  0
  200.0754  152.1007   -0.1226 H   0  0  0  0  0  0  0  0  0  0  0  0
  206.5588  150.4227    1.7149 H   0  0  0  0  0  0  0  0  0  0  0  0
  205.2788  151.0322    2.7577 H   0  0  0  0  0  0  0  0  0  0  0  0
  204.7465  151.4016   -0.1492 H   0  0  0  0  0  0  0  0  0  0  0  0
  205.8191  148.9714    0.1361 H   0  0  0  0  0  0  0  0  0  0  0  0
  202.9765  148.0517    0.0962 H   0  0  0  0  0  0  0  0  0  0  0  0
  202.6602  147.9041    2.5398 H   0  0  0  0  0  0  0  0  0  0  0  0
  203.1879  150.5437    3.0941 H   0  0  0  0  0  0  0  0  0  0  0  0
  204.6684  147.5664    3.1556 H   0  0  0  0  0  0  0  0  0  0  0  0
  203.6223  149.8494   -1.3856 H   0  0  0  0  0  0  0  0  0  0  0  0
  200.9160  144.4514    2.4455 H   0  0  0  0  0  0  0  0  0  0  0  0
  200.4739  143.1707    1.2875 H   0  0  0  0  0  0  0  0  0  0  0  0
  202.1455  144.2223   -0.3445 H   0  0  0  0  0  0  0  0  0  0  0  0
  203.3871  143.2063    2.3049 H   0  0  0  0  0  0  0  0  0  0  0  0
  204.4057  143.0673   -0.5664 H   0  0  0  0  0  0  0  0  0  0  0  0
  205.9361  144.9006   -0.0683 H   0  0  0  0  0  0  0  0  0  0  0  0
  203.8090  145.9191   -0.7173 H   0  0  0  0  0  0  0  0  0  0  0  0
  205.6391  145.9248    2.0433 H   0  0  0  0  0  0  0  0  0  0  0  0
  202.1415  141.5858    1.6625 H   0  0  0  0  0  0  0  0  0  0  0  0
  200.3130  145.9729    0.8751 H   0  0  0  0  0  0  0  0  0  0  0  0
  209.6717  144.1735   -0.5543 H   0  0  0  0  0  0  0  0  0  0  0  0
  209.9466  144.6400    1.1423 H   0  0  0  0  0  0  0  0  0  0  0  0
  207.6947  143.5675    1.6937 H   0  0  0  0  0  0  0  0  0  0  0  0
  209.7501  141.6629    0.4346 H   0  0  0  0  0  0  0  0  0  0  0  0
  207.6993  141.2054    2.6691 H   0  0  0  0  0  0  0  0  0  0  0  0
  206.4259  139.8743    1.0522 H   0  0  0  0  0  0  0  0  0  0  0  0
  205.9408  141.5786   -0.8029 H   0  0  0  0  0  0  0  0  0  0  0  0
  208.0815  140.5595   -1.0895 H   0  0  0  0  0  0  0  0  0  0  0  0
  208.9884  139.2160    1.2131 H   0  0  0  0  0  0  0  0  0  0  0  0
  210.3241  141.4852    2.7061 H   0  0  0  0  0  0  0  0  0  0  0  0
  207.8606  145.7028    0.9961 H   0  0  0  0  0  0  0  0  0  0  0  0
  210.5246  153.8955    2.7286 H   0  0  0  0  0  0  0  0  0  0  0  0
  211.3972  154.4434    1.2912 H   0  0  0  0  0  0  0  0  0  0  0  0
  209.5921  153.3570   -0.1418 H   0  0  0  0  0  0  0  0  0  0  0  0
  209.4483  155.7008    0.1705 H   0  0  0  0  0  0  0  0  0  0  0  0
  207.3439  155.8891   -0.5181 H   0  0  0  0  0  0  0  0  0  0  0  0
  207.6587  153.6255   -1.1355 H   0  0  0  0  0  0  0  0  0  0  0  0
  207.3439  151.6982    0.0864 H   0  0  0  0  0  0  0  0  0  0  0  0
  205.0291  153.6743   -0.1438 H   0  0  0  0  0  0  0  0  0  0  0  0
  207.9714  155.7515    2.4704 H   0  0  0  0  0  0  0  0  0  0  0  0
  201.1210  154.3279    0.2732 H   0  0  0  0  0  0  0  0  0  0  0  0
  202.1708  153.7071    1.5929 H   0  0  0  0  0  0  0  0  0  0  0  0
  203.1402  155.6178   -0.5759 H   0  0  0  0  0  0  0  0  0  0  0  0
  202.1600  156.3503    2.2645 H   0  0  0  0  0  0  0  0  0  0  0  0
  203.5195  158.0861    0.1389 H   0  0  0  0  0  0  0  0  0  0  0  0
  205.4999  158.1422    1.6505 H   0  0  0  0  0  0  0  0  0  0  0  0
  205.3019  156.4049   -0.1885 H   0  0  0  0  0  0  0  0  0  0  0  0
  204.6309  155.9821    3.1341 H   0  0  0  0  0  0  0  0  0  0  0  0
  201.9360  158.8960    1.6710 H   0  0  0  0  0  0  0  0  0  0  0  0
  200.5287  156.3680    0.7132 H   0  0  0  0  0  0  0  0  0  0  0  0
  202.2005  152.3205   -0.0894 H   0  0  0  0  0  0  0  0  0  0  0  0
  215.4416  154.0207    1.6276 H   0  0  0  0  0  0  0  0  0  0  0  0
  213.7195  154.0692    2.0708 H   0  0  0  0  0  0  0  0  0  0  0  0
  214.8477  152.7913   -0.4595 H   0  0  0  0  0  0  0  0  0  0  0  0
  214.1611  151.5442    2.2394 H   0  0  0  0  0  0  0  0  0  0  0  0
  214.1500  150.2064   -0.5222 H   0  0  0  0  0  0  0  0  0  0  0  0
  211.8425  149.8389   -0.1977 H   0  0  0  0  0  0  0  0  0  0  0  0
  211.0109  151.9172   -0.2672 H   0  0  0  0  0  0  0  0  0  0  0  0
  211.3521  150.6361    2.2912 H   0  0  0  0  0  0  0  0  0  0  0  0
  213.4741  148.8546    1.7861 H   0  0  0  0  0  0  0  0  0  0  0  0
  216.0091  150.2875    1.4292 H   0  0  0  0  0  0  0  0  0  0  0  0
  213.4453  154.9838   -0.1245 H   0  0  0  0  0  0  0  0  0  0  0  0
  1  2  1  0
  1 96  1  1
  1 97  1  0
  1 98  1  0
  2  3  2  0
  2  4  1  0
  5  4  1  0
  5  6  1  0
  5 99  1  6
  6  7  1  0
  6 14  1  0
  6100  1  1
  7  8  1  0
  7 89  1  0
  7101  1  6
  8  9  1  0
  8 12  1  0
  8102  1  1
  9 10  1  0
 10 11  1  0
 10  5  1  0
 10103  1  6
 11104  1  0
 12 13  1  0
 12105  1  1
 12106  1  0
 13107  1  0
 14108  1  0
 15 16  1  0
 15109  1  1
 15110  1  0
 15111  1  0
 16 17  2  0
 16 18  1  0
 19 18  1  0
 19 20  1  0
 19112  1  1
 20 21  1  0
 20 27  1  0
 20113  1  6
 21 90  1  0
 21114  1  0
 23 22  1  1
 22115  1  0
 23 24  1  0
 23 19  1  0
 23 89  1  0
 24116  1  0
 25 26  1  0
 25117  1  6
 25118  1  0
 25119  1  0
 26120  1  0
 27121  1  0
 28122  1  1
 28123  1  0
 29 28  1  0
 29 30  1  0
 29124  1  6
 30 31  1  0
 30 36  1  0
 30125  1  6
 31 32  1  0
 31 91  1  0
 31126  1  1
 32 33  1  0
 32 35  1  0
 32127  1  1
 33 34  1  0
 33 90  1  0
 33128  1  1
 34 29  1  0
 35129  1  0
 36130  1  0
 37 46  1  0
 37131  1  1
 37132  1  0
 38 37  1  0
 38 39  1  0
 38133  1  6
 39 40  1  0
 39 45  1  0
 39134  1  1
 40 41  1  0
 40 92  1  0
 40135  1  1
 41 42  1  0
 41 44  1  0
 41136  1  6
 42 43  1  0
 42 91  1  0
 42137  1  6
 43 38  1  0
 44138  1  0
 45139  1  0
 46140  1  0
 47 57  1  0
 47141  1  6
 47142  1  0
 48 47  1  0
 48 49  1  0
 48143  1  1
 49 50  1  0
 49 56  1  0
 49144  1  6
 50 51  1  0
 50 55  1  0
 50145  1  1
 51 52  1  0
 51 54  1  0
 51146  1  1
 52 53  1  0
 52 92  1  0
 52147  1  1
 53 48  1  0
 54148  1  0
 55149  1  0
 56150  1  0
 57151  1  0
 58152  1  1
 58153  1  0
 59 58  1  0
 59 60  1  0
 59154  1  6
 60 61  1  0
 60 66  1  0
 60155  1  1
 61 62  1  0
 61 94  1  0
 61156  1  1
 62 63  1  0
 62 65  1  0
 62157  1  6
 63 64  1  0
 63 93  1  0
 63158  1  1
 64 59  1  0
 65159  1  0
 66160  1  0
 67 77  1  0
 67161  1  6
 67162  1  0
 68 67  1  0
 68 69  1  0
 68163  1  6
 69 70  1  0
 69 76  1  0
 69164  1  1
 70 71  1  0
 70 75  1  0
 70165  1  6
 71 72  1  0
 71 74  1  0
 71166  1  1
 72 73  1  0
 72 94  1  0
 72167  1  6
 73 68  1  0
 74168  1  0
 75169  1  0
 76170  1  0
 77171  1  0
 78 88  1  0
 78172  1  1
 78173  1  0
 79 78  1  0
 79 80  1  0
 79174  1  6
 80 81  1  0
 80 87  1  0
 80175  1  1
 81 82  1  0
 81 86  1  0
 81176  1  6
 82 83  1  0
 82 85  1  0
 82177  1  6
 83 84  1  0
 83 95  1  0
 83178  1  6
 84 79  1  0
 85179  1  0
 86180  1  0
 87181  1  0
 88182  1  0
 93 28  1  0
 95 58  1  0
M  RAD  3   4   2  18   2  21   2
M  END
$$$$
