chair_1C4_beta_rank1_Q0.795_theta174.7_phi45.0_E15.2
     RDKit          3D

182187  0  0  0  0  0  0  0  0999 V2000
  189.2066  151.0942    0.6297 C   0  0  2  0  0  0  0  0  0  0  0  0
  190.5434  151.1355   -0.0373 C   0  0  0  0  0  0  0  0  0  0  0  0
  190.7374  151.6494   -1.1323 O   0  0  0  0  0  0  0  0  0  0  0  0
  191.5159  150.5392    0.7258 N   0  0  0  0  0  2  0  0  0  0  0  0
  192.8791  150.4548    0.2414 C   0  0  2  0  0  0  0  0  0  0  0  0
  193.7818  149.7122    1.2117 C   0  0  2  0  0  0  0  0  0  0  0  0
  196.4980  149.4587    0.7534 C   0  0  1  0  0  0  0  0  0  0  0  0
  195.6805  151.0569    0.3136 C   0  0  2  0  0  0  0  0  0  0  0  0
  194.7934  151.6618   -0.6291 O   0  0  0  0  0  0  0  0  0  0  0  0
  193.4826  151.8194   -0.0861 C   0  0  2  0  0  0  0  0  0  0  0  0
  193.5029  152.6527    1.0613 O   0  0  0  0  0  0  0  0  0  0  0  0
  197.0765  151.0306   -0.2612 C   0  0  2  0  0  0  0  0  0  0  0  0
  197.4569  150.3198   -1.3123 O   0  0  0  0  0  0  0  0  0  0  0  0
  193.3046  148.3870    1.3906 O   0  0  0  0  0  0  0  0  0  0  0  0
  197.3171  153.9914   -1.0272 C   0  0  2  0  0  0  0  0  0  0  0  0
  197.5278  152.8460   -0.1154 C   0  0  0  0  0  0  0  0  0  0  0  0
  196.8752  152.6152    0.8873 O   0  0  0  0  0  0  0  0  0  0  0  0
  198.5136  151.9746   -0.6106 N   0  0  0  0  0  2  0  0  0  0  0  0
  198.8745  150.7770    0.1229 C   0  0  2  0  0  0  0  0  0  0  0  0
  199.9986  150.0308   -0.5411 C   0  0  2  0  0  0  0  0  0  0  0  0
  200.1847  148.7452   -0.1926 C   0  0  0  0  0  3  0  0  0  0  0  0
  198.0736  148.7128    1.1205 O   0  0  0  0  0  0  0  0  0  0  0  0
  197.7860  149.7319    0.3676 C   0  0  1  0  0  0  0  0  0  0  0  0
  197.2500  149.4344   -0.6947 O   0  0  0  0  0  0  0  0  0  0  0  0
  199.3957  146.7055    1.3086 C   0  0  2  0  0  0  0  0  0  0  0  0
  200.0819  147.0407    2.5002 O   0  0  0  0  0  0  0  0  0  0  0  0
  201.1501  150.8552   -0.6058 O   0  0  0  0  0  0  0  0  0  0  0  0
  205.5095  151.2588    0.5891 C   0  0  2  0  0  0  0  0  0  0  0  0
  204.3365  149.5022    0.3166 C   0  0  1  0  0  0  0  0  0  0  0  0
  205.1862  148.4375   -0.3553 C   0  0  1  0  0  0  0  0  0  0  0  0
  204.7395  148.2509   -0.5486 C   0  0  1  0  0  0  0  0  0  0  0  0
  203.2341  146.8414    0.2966 C   0  0  2  0  0  0  0  0  0  0  0  0
  202.5679  148.0495    0.9019 C   0  0  1  0  0  0  0  0  0  0  0  0
  203.5113  149.0099    1.3736 O   0  0  0  0  0  0  0  0  0  0  0  0
  203.9551  146.2389    1.2961 O   0  0  0  0  0  0  0  0  0  0  0  0
  205.9029  148.8797   -1.3979 O   0  0  0  0  0  0  0  0  0  0  0  0
  200.4662  143.0173    1.4706 C   0  0  2  0  0  0  0  0  0  0  0  0
  201.5590  143.2809    0.4540 C   0  0  2  0  0  0  0  0  0  0  0  0
  202.5501  142.1701    0.4158 C   0  0  2  0  0  0  0  0  0  0  0  0
  203.3563  145.4274    1.1137 C   0  0  2  0  0  0  0  0  0  0  0  0
  204.3051  143.8635   -0.2884 C   0  0  1  0  0  0  0  0  0  0  0  0
  204.8132  147.7763    0.1953 C   0  0  1  0  0  0  0  0  0  0  0  0
  202.3458  144.6446    0.7361 O   0  0  0  0  0  0  0  0  0  0  0  0
  204.9940  143.6702    0.9293 O   0  0  0  0  0  0  0  0  0  0  0  0
  201.8399  140.9346    0.0409 O   0  0  0  0  0  0  0  0  0  0  0  0
  199.4345  143.9739    1.3279 O   0  0  0  0  0  0  0  0  0  0  0  0
  208.5239  145.5772    0.8152 C   0  0  2  0  0  0  0  0  0  0  0  0
  207.9351  144.1835    0.7324 C   0  0  2  0  0  0  0  0  0  0  0  0
  208.9670  143.2048    0.1975 C   0  0  2  0  0  0  0  0  0  0  0  0
  208.3420  141.8277    0.1118 C   0  0  1  0  0  0  0  0  0  0  0  0
  206.9152  142.1145   -0.5678 C   0  0  1  0  0  0  0  0  0  0  0  0
  204.4401  145.5033    1.6501 C   0  0  2  0  0  0  0  0  0  0  0  0
  206.7478  144.2094   -0.0728 O   0  0  0  0  0  0  0  0  0  0  0  0
  207.3516  142.1724   -2.0615 O   0  0  0  0  0  0  0  0  0  0  0  0
  209.2554  140.8884   -0.4203 O   0  0  0  0  0  0  0  0  0  0  0  0
  210.0882  143.1768    1.0617 O   0  0  0  0  0  0  0  0  0  0  0  0
  207.6574  146.4233    1.5458 O   0  0  0  0  0  0  0  0  0  0  0  0
  207.2373  155.3719    0.0582 C   0  0  1  0  0  0  0  0  0  0  0  0
  210.0917  154.6071   -1.1891 C   0  0  2  0  0  0  0  0  0  0  0  0
  211.4836  154.5422   -1.9228 C   0  0  2  0  0  0  0  0  0  0  0  0
  210.6030  153.2480   -1.0711 C   0  0  1  0  0  0  0  0  0  0  0  0
  207.8565  151.1343   -0.0432 C   0  0  1  0  0  0  0  0  0  0  0  0
  206.6039  151.8368    0.5244 C   0  0  1  0  0  0  0  0  0  0  0  0
  206.5072  153.1356    0.0527 O   0  0  0  0  0  0  0  0  0  0  0  0
  207.6878  151.0073   -1.4388 O   0  0  0  0  0  0  0  0  0  0  0  0
  210.9832  154.5876   -0.6910 O   0  0  0  0  0  0  0  0  0  0  0  0
  204.0059  154.9354   -0.0818 C   0  0  2  0  0  0  0  0  0  0  0  0
  203.7061  156.4173   -0.1829 C   0  0  1  0  0  0  0  0  0  0  0  0
  202.4027  156.7424    0.5269 C   0  0  1  0  0  0  0  0  0  0  0  0
  202.1420  158.2310    0.4214 C   0  0  2  0  0  0  0  0  0  0  0  0
  203.3281  159.0226    0.9403 C   0  0  2  0  0  0  0  0  0  0  0  0
  205.5267  157.1149    0.2692 C   0  0  2  0  0  0  0  0  0  0  0  0
  204.7818  157.1648    0.3596 O   0  0  0  0  0  0  0  0  0  0  0  0
  203.4843  158.8243    2.3369 O   0  0  0  0  0  0  0  0  0  0  0  0
  200.9565  158.5880    1.1040 O   0  0  0  0  0  0  0  0  0  0  0  0
  201.3425  156.0197   -0.0714 O   0  0  0  0  0  0  0  0  0  0  0  0
  205.0843  154.6033   -0.9339 O   0  0  0  0  0  0  0  0  0  0  0  0
  212.7940  153.9096    0.4552 C   0  0  2  0  0  0  0  0  0  0  0  0
  212.9221  152.4690    0.0029 C   0  0  1  0  0  0  0  0  0  0  0  0
  213.9291  151.7310    0.8685 C   0  0  1  0  0  0  0  0  0  0  0  0
  214.0205  150.2929    0.4012 C   0  0  2  0  0  0  0  0  0  0  0  0
  212.6538  149.6363    0.3849 C   0  0  2  0  0  0  0  0  0  0  0  0
  211.2204  150.9612   -0.4058 C   0  0  2  0  0  0  0  0  0  0  0  0
  211.6459  151.8310    0.0381 O   0  0  0  0  0  0  0  0  0  0  0  0
  212.1408  149.5206    1.7021 O   0  0  0  0  0  0  0  0  0  0  0  0
  214.9188  149.5543    1.2052 O   0  0  0  0  0  0  0  0  0  0  0  0
  215.1948  152.3572    0.7644 O   0  0  0  0  0  0  0  0  0  0  0  0
  212.0492  154.6465   -0.4879 O   0  0  0  0  0  0  0  0  0  0  0  0
  199.7458  148.9742    1.1960 O   0  0  0  0  0  0  0  0  0  0  0  0
  201.7391  148.8427    1.5573 O   0  0  0  0  0  0  0  0  0  0  0  0
  205.1411  148.4608    0.0880 O   0  0  0  0  0  0  0  0  0  0  0  0
  200.8798  142.6145    3.0269 O   0  0  0  0  0  0  0  0  0  0  0  0
  207.9458  153.7928   -0.0387 O   0  0  0  0  0  0  0  0  0  0  0  0
  206.8250  154.6796    0.6146 O   0  0  0  0  0  0  0  0  0  0  0  0
  208.8217  153.3292   -0.2447 O   0  0  0  0  0  0  0  0  0  0  0  0
  188.4801  151.5681    0.0028 H   0  0  0  0  0  0  0  0  0  0  0  0
  189.2593  151.6088    1.5665 H   0  0  0  0  0  0  0  0  0  0  0  0
  188.9229  150.0760    0.7975 H   0  0  0  0  0  0  0  0  0  0  0  0
  192.8240  149.8996   -0.6717 H   0  0  0  0  0  0  0  0  0  0  0  0
  193.7514  150.2327    2.1465 H   0  0  0  0  0  0  0  0  0  0  0  0
  194.8995  148.7410    0.5257 H   0  0  0  0  0  0  0  0  0  0  0  0
  195.6884  151.6456    1.2077 H   0  0  0  0  0  0  0  0  0  0  0  0
  192.8674  152.2978   -0.8198 H   0  0  0  0  0  0  0  0  0  0  0  0
  194.0731  152.2249    1.7618 H   0  0  0  0  0  0  0  0  0  0  0  0
  197.7663  150.7999    0.5233 H   0  0  0  0  0  0  0  0  0  0  0  0
  197.3088  151.9621   -0.6527 H   0  0  0  0  0  0  0  0  0  0  0  0
  196.7075  149.0039   -1.2237 H   0  0  0  0  0  0  0  0  0  0  0  0
  193.3320  147.9126    0.5111 H   0  0  0  0  0  0  0  0  0  0  0  0
  196.5466  154.6145   -0.6230 H   0  0  0  0  0  0  0  0  0  0  0  0
  197.0315  153.6590   -2.0037 H   0  0  0  0  0  0  0  0  0  0  0  0
  198.2287  154.5478   -1.0922 H   0  0  0  0  0  0  0  0  0  0  0  0
  199.1900  151.1206    1.0848 H   0  0  0  0  0  0  0  0  0  0  0  0
  199.6867  149.7689   -1.5306 H   0  0  0  0  0  0  0  0  0  0  0  0
  200.6149  148.0298   -0.5163 H   0  0  0  0  0  0  0  0  0  0  0  0
  198.4762  148.8636    2.0226 H   0  0  0  0  0  0  0  0  0  0  0  0
  196.6693  149.9658   -1.5131 H   0  0  0  0  0  0  0  0  0  0  0  0
  199.9086  147.1212    0.4665 H   0  0  0  0  0  0  0  0  0  0  0  0
  198.3981  147.0911    1.3447 H   0  0  0  0  0  0  0  0  0  0  0  0
  199.3426  145.6730    1.2037 H   0  0  0  0  0  0  0  0  0  0  0  0
  200.1125  148.0359    2.5870 H   0  0  0  0  0  0  0  0  0  0  0  0
  201.4312  151.0920    0.3238 H   0  0  0  0  0  0  0  0  0  0  0  0
  205.9582  149.9431    1.3885 H   0  0  0  0  0  0  0  0  0  0  0  0
  204.4492  151.2510    0.8813 H   0  0  0  0  0  0  0  0  0  0  0  0
  203.7111  149.9217   -0.4367 H   0  0  0  0  0  0  0  0  0  0  0  0
  205.8097  147.9390    0.4012 H   0  0  0  0  0  0  0  0  0  0  0  0
  203.8325  146.6061   -1.5401 H   0  0  0  0  0  0  0  0  0  0  0  0
  202.5371  146.1592   -0.1142 H   0  0  0  0  0  0  0  0  0  0  0  0
  201.9637  147.2155    0.6070 H   0  0  0  0  0  0  0  0  0  0  0  0
  204.6754  146.7967    1.6788 H   0  0  0  0  0  0  0  0  0  0  0  0
  205.2848  149.2831   -2.0715 H   0  0  0  0  0  0  0  0  0  0  0  0
  200.8784  143.0734    2.4520 H   0  0  0  0  0  0  0  0  0  0  0  0
  200.0572  142.0418    1.3078 H   0  0  0  0  0  0  0  0  0  0  0  0
  201.1184  143.3797   -0.5159 H   0  0  0  0  0  0  0  0  0  0  0  0
  202.9708  141.9662    1.3731 H   0  0  0  0  0  0  0  0  0  0  0  0
  203.5565  141.8239   -0.9838 H   0  0  0  0  0  0  0  0  0  0  0  0
  204.9883  143.9682   -1.0819 H   0  0  0  0  0  0  0  0  0  0  0  0
  202.6716  145.0387   -1.0046 H   0  0  0  0  0  0  0  0  0  0  0  0
  204.3496  143.4624    1.6605 H   0  0  0  0  0  0  0  0  0  0  0  0
  201.4271  141.0679   -0.8593 H   0  0  0  0  0  0  0  0  0  0  0  0
  199.8355  144.8524    1.4919 H   0  0  0  0  0  0  0  0  0  0  0  0
  208.6596  145.9659   -0.1726 H   0  0  0  0  0  0  0  0  0  0  0  0
  209.4685  145.5348    1.3164 H   0  0  0  0  0  0  0  0  0  0  0  0
  207.6560  143.8622    1.7144 H   0  0  0  0  0  0  0  0  0  0  0  0
  209.2926  143.5112   -0.7749 H   0  0  0  0  0  0  0  0  0  0  0  0
  208.0930  141.5200    1.1061 H   0  0  0  0  0  0  0  0  0  0  0  0
  206.6039  140.8908   -0.6745 H   0  0  0  0  0  0  0  0  0  0  0  0
  205.3508  142.3497    0.1169 H   0  0  0  0  0  0  0  0  0  0  0  0
  207.7837  143.0727   -2.0992 H   0  0  0  0  0  0  0  0  0  0  0  0
  209.4973  141.1633   -1.3503 H   0  0  0  0  0  0  0  0  0  0  0  0
  209.7887  142.8910    1.9714 H   0  0  0  0  0  0  0  0  0  0  0  0
  206.7751  146.4639    1.0787 H   0  0  0  0  0  0  0  0  0  0  0  0
  207.3615  156.1727    0.7332 H   0  0  0  0  0  0  0  0  0  0  0  0
  206.5849  155.9634   -0.4982 H   0  0  0  0  0  0  0  0  0  0  0  0
  207.6440  153.8907    1.4796 H   0  0  0  0  0  0  0  0  0  0  0  0
  210.5331  154.1752   -2.0255 H   0  0  0  0  0  0  0  0  0  0  0  0
  209.8029  151.3220    0.6305 H   0  0  0  0  0  0  0  0  0  0  0  0
  207.9466  150.1158    0.3676 H   0  0  0  0  0  0  0  0  0  0  0  0
  206.1525  151.1268    1.1411 H   0  0  0  0  0  0  0  0  0  0  0  0
  207.5598  151.9252   -1.8136 H   0  0  0  0  0  0  0  0  0  0  0  0
  209.9048  154.1593    1.3613 H   0  0  0  0  0  0  0  0  0  0  0  0
  203.1380  154.3762   -0.3638 H   0  0  0  0  0  0  0  0  0  0  0  0
  204.2751  154.6954    0.9260 H   0  0  0  0  0  0  0  0  0  0  0  0
  203.5934  156.6823   -1.2137 H   0  0  0  0  0  0  0  0  0  0  0  0
  202.4679  156.4628    1.5580 H   0  0  0  0  0  0  0  0  0  0  0  0
  202.0110  158.4664   -0.6145 H   0  0  0  0  0  0  0  0  0  0  0  0
  203.1422  160.0730    0.7723 H   0  0  0  0  0  0  0  0  0  0  0  0
  204.6651  159.5584   -0.1728 H   0  0  0  0  0  0  0  0  0  0  0  0
  203.6509  157.8527    2.5024 H   0  0  0  0  0  0  0  0  0  0  0  0
  201.0646  158.3733    2.0742 H   0  0  0  0  0  0  0  0  0  0  0  0
  201.2779  156.2777   -1.0348 H   0  0  0  0  0  0  0  0  0  0  0  0
  204.8350  154.8265   -1.8750 H   0  0  0  0  0  0  0  0  0  0  0  0
  213.7687  154.3402    0.5538 H   0  0  0  0  0  0  0  0  0  0  0  0
  212.2907  153.9421    1.3993 H   0  0  0  0  0  0  0  0  0  0  0  0
  213.2793  152.4492   -1.0058 H   0  0  0  0  0  0  0  0  0  0  0  0
  213.6188  151.7554    1.8925 H   0  0  0  0  0  0  0  0  0  0  0  0
  214.4005  150.2991   -0.5994 H   0  0  0  0  0  0  0  0  0  0  0  0
  212.7405  148.6532   -0.0335 H   0  0  0  0  0  0  0  0  0  0  0  0
  211.7829  149.6863   -1.1545 H   0  0  0  0  0  0  0  0  0  0  0  0
  212.0579  150.4348    2.0977 H   0  0  0  0  0  0  0  0  0  0  0  0
  214.5760  149.5401    2.1441 H   0  0  0  0  0  0  0  0  0  0  0  0
  215.4886  152.3367   -0.1907 H   0  0  0  0  0  0  0  0  0  0  0  0
  212.5116  154.6158   -1.3678 H   0  0  0  0  0  0  0  0  0  0  0  0
  1  2  1  0
  1 96  1  6
  1 97  1  0
  1 98  1  0
  2  3  2  0
  2  4  1  0
  5  4  1  0
  5  6  1  0
  5 99  1  6
  6  7  1  0
  6 14  1  0
  6100  1  1
  7  8  1  0
  7 89  1  0
  7101  1  6
  8  9  1  0
  8 12  1  0
  8102  1  1
  9 10  1  0
 10 11  1  0
 10  5  1  0
 10103  1  6
 11104  1  0
 12 13  1  0
 12105  1  1
 12106  1  0
 13107  1  0
 14108  1  0
 15 16  1  0
 15109  1  1
 15110  1  0
 15111  1  0
 16 17  2  0
 16 18  1  0
 19 18  1  0
 19 20  1  0
 19112  1  1
 20 21  1  0
 20 27  1  0
 20113  1  6
 21 90  1  0
 21114  1  0
 23 22  1  6
 22115  1  0
 23 24  1  0
 23 19  1  0
 23 89  1  0
 24116  1  0
 25 26  1  0
 25117  1  6
 25118  1  0
 25119  1  0
 26120  1  0
 27121  1  0
 28122  1  1
 28123  1  0
 29 28  1  0
 29 30  1  0
 29124  1  6
 30 31  1  0
 30 36  1  0
 30125  1  1
 31 32  1  0
 31 91  1  0
 31126  1  6
 32 33  1  0
 32 35  1  0
 32127  1  6
 33 34  1  0
 33 90  1  0
 33128  1  1
 34 29  1  0
 35129  1  0
 36130  1  0
 37 46  1  0
 37131  1  1
 37132  1  0
 38 37  1  0
 38 39  1  0
 38133  1  6
 39 40  1  0
 39 45  1  0
 39134  1  1
 40 41  1  0
 40 92  1  0
 40135  1  6
 41 42  1  0
 41 44  1  0
 41136  1  6
 42 43  1  0
 42 91  1  0
 42137  1  6
 43 38  1  0
 44138  1  0
 45139  1  0
 46140  1  0
 47 57  1  0
 47141  1  6
 47142  1  0
 48 47  1  0
 48 49  1  0
 48143  1  1
 49 50  1  0
 49 56  1  0
 49144  1  6
 50 51  1  0
 50 55  1  0
 50145  1  1
 51 52  1  0
 51 54  1  0
 51146  1  6
 52 53  1  0
 52 92  1  0
 52147  1  1
 53 48  1  0
 54148  1  0
 55149  1  0
 56150  1  0
 57151  1  0
 58152  1  6
 58153  1  0
 59 58  1  0
 59 60  1  0
 59154  1  1
 60 61  1  0
 60 66  1  0
 60155  1  6
 61 62  1  0
 61 94  1  0
 61156  1  1
 62 63  1  0
 62 65  1  0
 62157  1  1
 63 64  1  0
 63 93  1  0
 63158  1  1
 64 59  1  0
 65159  1  0
 66160  1  0
 67 77  1  0
 67161  1  6
 67162  1  0
 68 67  1  0
 68 69  1  0
 68163  1  6
 69 70  1  0
 69 76  1  0
 69164  1  1
 70 71  1  0
 70 75  1  0
 70165  1  6
 71 72  1  0
 71 74  1  0
 71166  1  1
 72 73  1  0
 72 94  1  0
 72167  1  6
 73 68  1  0
 74168  1  0
 75169  1  0
 76170  1  0
 77171  1  0
 78 88  1  0
 78172  1  1
 78173  1  0
 79 78  1  0
 79 80  1  0
 79174  1  6
 80 81  1  0
 80 87  1  0
 80175  1  1
 81 82  1  0
 81 86  1  0
 81176  1  6
 82 83  1  0
 82 85  1  0
 82177  1  6
 83 84  1  0
 83 95  1  0
 83178  1  6
 84 79  1  0
 85179  1  0
 86180  1  0
 87181  1  0
 88182  1  0
 93 28  1  0
 95 58  1  0
M  RAD  3   4   2  18   2  21   2
M  END
>  <step>  (1) 
0

>  <phase>  (1) 
minimization

>  <energy>  (1) 
545248.1652

$$$$
chair_1C4_beta_rank1_Q0.795_theta174.7_phi45.0_E15.2
     RDKit          3D

182187  0  0  0  0  0  0  0  0999 V2000
  189.2400  150.7231    1.4395 C   0  0  2  0  0  0  0  0  0  0  0  0
  190.3402  150.4412    0.4765 C   0  0  0  0  0  0  0  0  0  0  0  0
  190.1020  150.2080   -0.6928 O   0  0  0  0  0  0  0  0  0  0  0  0
  191.5375  150.4723    1.0747 N   0  0  0  0  0  2  0  0  0  0  0  0
  192.6769  150.5000    0.1197 C   0  0  2  0  0  0  0  0  0  0  0  0
  193.9968  150.2107    0.8628 C   0  0  2  0  0  0  0  0  0  0  0  0
  195.2221  150.3078   -0.0667 C   0  0  1  0  0  0  0  0  0  0  0  0
  195.1538  151.5319   -1.0152 C   0  0  2  0  0  0  0  0  0  0  0  0
  193.8446  151.8068   -1.5367 O   0  0  0  0  0  0  0  0  0  0  0  0
  192.8097  151.8660   -0.5716 C   0  0  2  0  0  0  0  0  0  0  0  0
  193.0312  152.8978    0.3878 O   0  0  0  0  0  0  0  0  0  0  0  0
  196.0418  151.3917   -2.2739 C   0  0  2  0  0  0  0  0  0  0  0  0
  195.9202  150.1205   -2.9256 O   0  0  0  0  0  0  0  0  0  0  0  0
  193.8839  148.8768    1.4029 O   0  0  0  0  0  0  0  0  0  0  0  0
  197.8146  154.3551   -0.2456 C   0  0  2  0  0  0  0  0  0  0  0  0
  198.3645  153.1956    0.5233 C   0  0  0  0  0  0  0  0  0  0  0  0
  198.6380  153.2916    1.7090 O   0  0  0  0  0  0  0  0  0  0  0  0
  198.5654  152.1288   -0.2725 N   0  0  0  0  0  2  0  0  0  0  0  0
  198.7887  150.8258    0.4248 C   0  0  2  0  0  0  0  0  0  0  0  0
  200.0418  150.1518   -0.2024 C   0  0  2  0  0  0  0  0  0  0  0  0
  200.6762  149.1626    0.7173 C   0  0  0  0  0  3  0  0  0  0  0  0
  197.8246  148.7909    1.3315 O   0  0  0  0  0  0  0  0  0  0  0  0
  197.5804  149.8203    0.3818 C   0  0  2  0  0  0  0  0  0  0  0  0
  197.4886  149.1124   -0.8351 O   0  0  0  0  0  0  0  0  0  0  0  0
  199.3948  146.7182    1.3125 C   0  0  2  0  0  0  0  0  0  0  0  0
  200.0830  147.0452    2.5057 O   0  0  0  0  0  0  0  0  0  0  0  0
  201.0391  151.1321   -0.5014 O   0  0  0  0  0  0  0  0  0  0  0  0
  205.2187  151.1924    1.2925 C   0  0  2  0  0  0  0  0  0  0  0  0
  204.0274  150.2293    1.0926 C   0  0  1  0  0  0  0  0  0  0  0  0
  204.4244  149.0106    0.2264 C   0  0  1  0  0  0  0  0  0  0  0  0
  203.3737  147.8543    0.2254 C   0  0  2  0  0  0  0  0  0  0  0  0
  202.8467  147.6139    1.6529 C   0  0  2  0  0  0  0  0  0  0  0  0
  202.4477  148.9391    2.3323 C   0  0  1  0  0  0  0  0  0  0  0  0
  203.5947  149.8068    2.3870 O   0  0  0  0  0  0  0  0  0  0  0  0
  203.8500  146.9491    2.4536 O   0  0  0  0  0  0  0  0  0  0  0  0
  204.7012  149.4097   -1.1294 O   0  0  0  0  0  0  0  0  0  0  0  0
  200.7263  143.5350    1.2216 C   0  0  2  0  0  0  0  0  0  0  0  0
  201.9253  143.7375    0.2846 C   0  0  2  0  0  0  0  0  0  0  0  0
  203.0565  142.7333    0.6108 C   0  0  2  0  0  0  0  0  0  0  0  0
  204.2896  143.0277   -0.2736 C   0  0  1  0  0  0  0  0  0  0  0  0
  204.6164  144.5130   -0.1836 C   0  0  1  0  0  0  0  0  0  0  0  0
  203.4286  145.4373   -0.4694 C   0  0  1  0  0  0  0  0  0  0  0  0
  202.3598  145.1064    0.4045 O   0  0  0  0  0  0  0  0  0  0  0  0
  205.1055  144.7873    1.1592 O   0  0  0  0  0  0  0  0  0  0  0  0
  202.6397  141.3749    0.4111 O   0  0  0  0  0  0  0  0  0  0  0  0
  199.5934  144.2317    0.7062 O   0  0  0  0  0  0  0  0  0  0  0  0
  208.5742  145.0841    0.8785 C   0  0  2  0  0  0  0  0  0  0  0  0
  208.0509  143.6510    0.7052 C   0  0  2  0  0  0  0  0  0  0  0  0
  209.1823  142.6243    0.5894 C   0  0  2  0  0  0  0  0  0  0  0  0
  208.5338  141.2329    0.4522 C   0  0  1  0  0  0  0  0  0  0  0  0
  207.5338  141.1773   -0.7111 C   0  0  1  0  0  0  0  0  0  0  0  0
  206.5608  142.3697   -0.7229 C   0  0  2  0  0  0  0  0  0  0  0  0
  207.2733  143.5969   -0.5185 O   0  0  0  0  0  0  0  0  0  0  0  0
  208.3210  141.1648   -1.9256 O   0  0  0  0  0  0  0  0  0  0  0  0
  209.6043  140.2785    0.2351 O   0  0  0  0  0  0  0  0  0  0  0  0
  210.0397  142.6485    1.7165 O   0  0  0  0  0  0  0  0  0  0  0  0
  207.5840  145.9431    1.4352 O   0  0  0  0  0  0  0  0  0  0  0  0
  209.8722  153.3909    1.5182 C   0  0  2  0  0  0  0  0  0  0  0  0
  208.8830  153.1687    0.3609 C   0  0  2  0  0  0  0  0  0  0  0  0
  208.8785  154.2938   -0.7321 C   0  0  1  0  0  0  0  0  0  0  0  0
  207.4712  154.4965   -1.2979 C   0  0  1  0  0  0  0  0  0  0  0  0
  206.8640  153.0940   -1.4907 C   0  0  1  0  0  0  0  0  0  0  0  0
  206.7705  152.2703   -0.1719 C   0  0  1  0  0  0  0  0  0  0  0  0
  207.5566  152.8739    0.8619 O   0  0  0  0  0  0  0  0  0  0  0  0
  205.6609  153.0385   -2.2602 O   0  0  0  0  0  0  0  0  0  0  0  0
  209.4120  155.5177   -0.2724 O   0  0  0  0  0  0  0  0  0  0  0  0
  202.4566  153.9889   -1.0354 C   0  0  2  0  0  0  0  0  0  0  0  0
  203.2770  155.2757   -0.8790 C   0  0  1  0  0  0  0  0  0  0  0  0
  202.8167  156.2006    0.2334 C   0  0  1  0  0  0  0  0  0  0  0  0
  203.7382  157.4434    0.1918 C   0  0  2  0  0  0  0  0  0  0  0  0
  205.2084  157.0538    0.3102 C   0  0  2  0  0  0  0  0  0  0  0  0
  205.5739  155.9287   -0.6746 C   0  0  2  0  0  0  0  0  0  0  0  0
  204.6301  154.8941   -0.6224 O   0  0  0  0  0  0  0  0  0  0  0  0
  205.4631  156.6926    1.6668 O   0  0  0  0  0  0  0  0  0  0  0  0
  203.3938  158.3559    1.2591 O   0  0  0  0  0  0  0  0  0  0  0  0
  201.4821  156.6710    0.0697 O   0  0  0  0  0  0  0  0  0  0  0  0
  202.8652  153.3752   -2.2760 O   0  0  0  0  0  0  0  0  0  0  0  0
  213.5013  154.6132    0.6835 C   0  0  2  0  0  0  0  0  0  0  0  0
  213.4228  153.1781    0.1420 C   0  0  1  0  0  0  0  0  0  0  0  0
  214.2205  152.2076    1.0148 C   0  0  1  0  0  0  0  0  0  0  0  0
  213.7980  150.7782    0.6405 C   0  0  2  0  0  0  0  0  0  0  0  0
  212.3556  150.5988    1.1099 C   0  0  2  0  0  0  0  0  0  0  0  0
  211.4582  151.7770    0.6537 C   0  0  2  0  0  0  0  0  0  0  0  0
  212.0643  152.8118   -0.1108 O   0  0  0  0  0  0  0  0  0  0  0  0
  212.3602  150.4556    2.5377 O   0  0  0  0  0  0  0  0  0  0  0  0
  214.6498  149.8427    1.3009 O   0  0  0  0  0  0  0  0  0  0  0  0
  215.6358  152.3829    0.7422 O   0  0  0  0  0  0  0  0  0  0  0  0
  213.0070  155.5308   -0.2989 O   0  0  0  0  0  0  0  0  0  0  0  0
  196.3682  150.4172    0.7989 O   0  0  0  0  0  0  0  0  0  0  0  0
  201.3122  149.6417    1.8297 O   0  0  0  0  0  0  0  0  0  0  0  0
  204.0536  146.7084   -0.2989 O   0  0  0  0  0  0  0  0  0  0  0  0
  205.4466  142.2391    0.1665 O   0  0  0  0  0  0  0  0  0  0  0  0
  205.3958  152.0527    0.1619 O   0  0  0  0  0  0  0  0  0  0  0  0
  206.8536  155.3865   -0.3527 O   0  0  0  0  0  0  0  0  0  0  0  0
  210.7215  152.2583    1.7906 O   0  0  0  0  0  0  0  0  0  0  0  0
  188.4259  151.2516    0.9111 H   0  0  0  0  0  0  0  0  0  0  0  0
  189.5522  151.3692    2.2701 H   0  0  0  0  0  0  0  0  0  0  0  0
  188.8410  149.7806    1.8397 H   0  0  0  0  0  0  0  0  0  0  0  0
  192.5648  149.7236   -0.6481 H   0  0  0  0  0  0  0  0  0  0  0  0
  194.1218  150.8664    1.7263 H   0  0  0  0  0  0  0  0  0  0  0  0
  195.2342  149.3674   -0.6215 H   0  0  0  0  0  0  0  0  0  0  0  0
  195.4807  152.4303   -0.4790 H   0  0  0  0  0  0  0  0  0  0  0  0
  191.8914  152.1346   -1.1070 H   0  0  0  0  0  0  0  0  0  0  0  0
  192.6432  152.5110    1.2003 H   0  0  0  0  0  0  0  0  0  0  0  0
  197.0959  151.5317   -2.0670 H   0  0  0  0  0  0  0  0  0  0  0  0
  195.7604  152.1517   -3.0126 H   0  0  0  0  0  0  0  0  0  0  0  0
  196.4800  149.5287   -2.3815 H   0  0  0  0  0  0  0  0  0  0  0  0
  192.9271  148.8205    1.6171 H   0  0  0  0  0  0  0  0  0  0  0  0
  196.9454  154.7546    0.2869 H   0  0  0  0  0  0  0  0  0  0  0  0
  197.4974  154.0931   -1.2567 H   0  0  0  0  0  0  0  0  0  0  0  0
  198.5825  155.1300   -0.3122 H   0  0  0  0  0  0  0  0  0  0  0  0
  199.0147  151.0056    1.4796 H   0  0  0  0  0  0  0  0  0  0  0  0
  199.8106  149.6710   -1.1564 H   0  0  0  0  0  0  0  0  0  0  0  0
  200.2642  148.1714    0.8264 H   0  0  0  0  0  0  0  0  0  0  0  0
  197.8391  149.3101    2.1569 H   0  0  0  0  0  0  0  0  0  0  0  0
  197.1754  148.2625   -0.4852 H   0  0  0  0  0  0  0  0  0  0  0  0
  199.9264  147.1412    0.4566 H   0  0  0  0  0  0  0  0  0  0  0  0
  198.3780  147.1163    1.3565 H   0  0  0  0  0  0  0  0  0  0  0  0
  199.3540  145.6311    1.2122 H   0  0  0  0  0  0  0  0  0  0  0  0
  200.1031  148.0154    2.5673 H   0  0  0  0  0  0  0  0  0  0  0  0
  200.4776  151.9384   -0.5808 H   0  0  0  0  0  0  0  0  0  0  0  0
  206.1275  150.6176    1.5227 H   0  0  0  0  0  0  0  0  0  0  0  0
  205.0262  151.8351    2.1603 H   0  0  0  0  0  0  0  0  0  0  0  0
  203.2317  150.7877    0.5950 H   0  0  0  0  0  0  0  0  0  0  0  0
  205.3618  148.5873    0.6115 H   0  0  0  0  0  0  0  0  0  0  0  0
  202.5726  148.0921   -0.4823 H   0  0  0  0  0  0  0  0  0  0  0  0
  201.9765  146.9532    1.6495 H   0  0  0  0  0  0  0  0  0  0  0  0
  202.2144  148.7152    3.3815 H   0  0  0  0  0  0  0  0  0  0  0  0
  204.2586  146.2648    1.8836 H   0  0  0  0  0  0  0  0  0  0  0  0
  203.8893  149.8453   -1.4578 H   0  0  0  0  0  0  0  0  0  0  0  0
  200.9284  143.9149    2.2286 H   0  0  0  0  0  0  0  0  0  0  0  0
  200.4435  142.4801    1.2940 H   0  0  0  0  0  0  0  0  0  0  0  0
  201.5750  143.5840   -0.7443 H   0  0  0  0  0  0  0  0  0  0  0  0
  203.3424  142.8151    1.6663 H   0  0  0  0  0  0  0  0  0  0  0  0
  204.0514  142.7305   -1.3040 H   0  0  0  0  0  0  0  0  0  0  0  0
  205.4193  144.7898   -0.8691 H   0  0  0  0  0  0  0  0  0  0  0  0
  203.0943  145.3510   -1.5071 H   0  0  0  0  0  0  0  0  0  0  0  0
  205.3943  143.9364    1.5454 H   0  0  0  0  0  0  0  0  0  0  0  0
  202.0838  141.3199   -0.3847 H   0  0  0  0  0  0  0  0  0  0  0  0
  199.7782  145.1862    0.7949 H   0  0  0  0  0  0  0  0  0  0  0  0
  208.8649  145.5096   -0.0847 H   0  0  0  0  0  0  0  0  0  0  0  0
  209.4297  145.1229    1.5559 H   0  0  0  0  0  0  0  0  0  0  0  0
  207.4108  143.4052    1.5673 H   0  0  0  0  0  0  0  0  0  0  0  0
  209.7923  142.8360   -0.2967 H   0  0  0  0  0  0  0  0  0  0  0  0
  208.0557  140.9556    1.3975 H   0  0  0  0  0  0  0  0  0  0  0  0
  206.9931  140.2282   -0.6812 H   0  0  0  0  0  0  0  0  0  0  0  0
  206.1718  142.4368   -1.7444 H   0  0  0  0  0  0  0  0  0  0  0  0
  208.4498  142.0889   -2.2090 H   0  0  0  0  0  0  0  0  0  0  0  0
  209.6760  140.2009   -0.7406 H   0  0  0  0  0  0  0  0  0  0  0  0
  210.5653  141.8236    1.6771 H   0  0  0  0  0  0  0  0  0  0  0  0
  206.7092  145.7364    1.0465 H   0  0  0  0  0  0  0  0  0  0  0  0
  209.3190  153.5829    2.4457 H   0  0  0  0  0  0  0  0  0  0  0  0
  210.5311  154.2501    1.3581 H   0  0  0  0  0  0  0  0  0  0  0  0
  209.1588  152.2452   -0.1732 H   0  0  0  0  0  0  0  0  0  0  0  0
  209.5448  153.9494   -1.5278 H   0  0  0  0  0  0  0  0  0  0  0  0
  207.5255  155.0300   -2.2547 H   0  0  0  0  0  0  0  0  0  0  0  0
  207.5712  152.5588   -2.1248 H   0  0  0  0  0  0  0  0  0  0  0  0
  207.1953  151.2734   -0.3761 H   0  0  0  0  0  0  0  0  0  0  0  0
  205.1000  152.3699   -1.7839 H   0  0  0  0  0  0  0  0  0  0  0  0
  208.6469  155.9745    0.1730 H   0  0  0  0  0  0  0  0  0  0  0  0
  201.3776  154.1933   -1.0932 H   0  0  0  0  0  0  0  0  0  0  0  0
  202.6741  153.2927   -0.2124 H   0  0  0  0  0  0  0  0  0  0  0  0
  203.2556  155.8013   -1.8368 H   0  0  0  0  0  0  0  0  0  0  0  0
  202.8842  155.7431    1.2253 H   0  0  0  0  0  0  0  0  0  0  0  0
  203.5772  157.9881   -0.7470 H   0  0  0  0  0  0  0  0  0  0  0  0
  205.8558  157.8987    0.1319 H   0  0  0  0  0  0  0  0  0  0  0  0
  205.5795  156.3061   -1.6909 H   0  0  0  0  0  0  0  0  0  0  0  0
  204.9377  157.3061    2.2191 H   0  0  0  0  0  0  0  0  0  0  0  0
  202.4130  158.3659    1.2453 H   0  0  0  0  0  0  0  0  0  0  0  0
  200.8772  155.9359    0.2975 H   0  0  0  0  0  0  0  0  0  0  0  0
  203.8272  153.5298   -2.3407 H   0  0  0  0  0  0  0  0  0  0  0  0
  214.5336  154.8992    0.9079 H   0  0  0  0  0  0  0  0  0  0  0  0
  212.8959  154.7349    1.5864 H   0  0  0  0  0  0  0  0  0  0  0  0
  213.8906  153.2024   -0.8486 H   0  0  0  0  0  0  0  0  0  0  0  0
  214.0672  152.3865    2.0765 H   0  0  0  0  0  0  0  0  0  0  0  0
  213.8906  150.6216   -0.4286 H   0  0  0  0  0  0  0  0  0  0  0  0
  211.9561  149.6527    0.7161 H   0  0  0  0  0  0  0  0  0  0  0  0
  210.7549  151.2997   -0.0350 H   0  0  0  0  0  0  0  0  0  0  0  0
  211.5168  150.8730    2.8416 H   0  0  0  0  0  0  0  0  0  0  0  0
  214.2213  149.7192    2.2099 H   0  0  0  0  0  0  0  0  0  0  0  0
  215.9924  151.4329    0.6202 H   0  0  0  0  0  0  0  0  0  0  0  0
  212.0813  155.2744   -0.4821 H   0  0  0  0  0  0  0  0  0  0  0  0
  1  2  1  0
  1 96  1  6
  1 97  1  0
  1 98  1  0
  2  3  2  0
  2  4  1  0
  5  4  1  0
  5  6  1  0
  5 99  1  6
  6  7  1  0
  6 14  1  0
  6100  1  1
  7  8  1  0
  7 89  1  0
  7101  1  6
  8  9  1  0
  8 12  1  0
  8102  1  1
  9 10  1  0
 10 11  1  0
 10  5  1  0
 10103  1  6
 11104  1  0
 12 13  1  0
 12105  1  1
 12106  1  0
 13107  1  0
 14108  1  0
 15 16  1  0
 15109  1  1
 15110  1  0
 15111  1  0
 16 17  2  0
 16 18  1  0
 19 18  1  0
 19 20  1  0
 19112  1  1
 20 21  1  0
 20 27  1  0
 20113  1  6
 21 90  1  0
 21114  1  0
 23 22  1  1
 22115  1  0
 23 24  1  0
 23 19  1  0
 23 89  1  0
 24116  1  0
 25 26  1  0
 25117  1  6
 25118  1  0
 25119  1  0
 26120  1  0
 27121  1  0
 28122  1  1
 28123  1  0
 29 28  1  0
 29 30  1  0
 29124  1  6
 30 31  1  0
 30 36  1  0
 30125  1  1
 31 32  1  0
 31 91  1  0
 31126  1  1
 32 33  1  0
 32 35  1  0
 32127  1  6
 33 34  1  0
 33 90  1  0
 33128  1  1
 34 29  1  0
 35129  1  0
 36130  1  0
 37 46  1  0
 37131  1  1
 37132  1  0
 38 37  1  0
 38 39  1  0
 38133  1  6
 39 40  1  0
 39 45  1  0
 39134  1  1
 40 41  1  0
 40 92  1  0
 40135  1  1
 41 42  1  0
 41 44  1  0
 41136  1  6
 42 43  1  0
 42 91  1  0
 42137  1  6
 43 38  1  0
 44138  1  0
 45139  1  0
 46140  1  0
 47 57  1  0
 47141  1  6
 47142  1  0
 48 47  1  0
 48 49  1  0
 48143  1  1
 49 50  1  0
 49 56  1  0
 49144  1  6
 50 51  1  0
 50 55  1  0
 50145  1  1
 51 52  1  0
 51 54  1  0
 51146  1  1
 52 53  1  0
 52 92  1  0
 52147  1  1
 53 48  1  0
 54148  1  0
 55149  1  0
 56150  1  0
 57151  1  0
 58152  1  1
 58153  1  0
 59 58  1  0
 59 60  1  0
 59154  1  6
 60 61  1  0
 60 66  1  0
 60155  1  1
 61 62  1  0
 61 94  1  0
 61156  1  1
 62 63  1  0
 62 65  1  0
 62157  1  6
 63 64  1  0
 63 93  1  0
 63158  1  1
 64 59  1  0
 65159  1  0
 66160  1  0
 67 77  1  0
 67161  1  6
 67162  1  0
 68 67  1  0
 68 69  1  0
 68163  1  6
 69 70  1  0
 69 76  1  0
 69164  1  1
 70 71  1  0
 70 75  1  0
 70165  1  6
 71 72  1  0
 71 74  1  0
 71166  1  6
 72 73  1  0
 72 94  1  0
 72167  1  6
 73 68  1  0
 74168  1  0
 75169  1  0
 76170  1  0
 77171  1  0
 78 88  1  0
 78172  1  1
 78173  1  0
 79 78  1  0
 79 80  1  0
 79174  1  6
 80 81  1  0
 80 87  1  0
 80175  1  1
 81 82  1  0
 81 86  1  0
 81176  1  6
 82 83  1  0
 82 85  1  0
 82177  1  6
 83 84  1  0
 83 95  1  0
 83178  1  6
 84 79  1  0
 85179  1  0
 86180  1  0
 87181  1  0
 88182  1  0
 93 28  1  0
 95 58  1  0
M  RAD  3   4   2  18   2  21   2
M  END
>  <step>  (1) 
50

>  <phase>  (1) 
minimization

>  <energy>  (1) 
705.1017

$$$$
chair_1C4_beta_rank1_Q0.795_theta174.7_phi45.0_E15.2
     RDKit          3D

182187  0  0  0  0  0  0  0  0999 V2000
  189.3500  150.6184    1.8741 C   0  0  2  0  0  0  0  0  0  0  0  0
  190.3731  150.3240    0.8042 C   0  0  0  0  0  0  0  0  0  0  0  0
  190.0169  149.8483   -0.2801 O   0  0  0  0  0  0  0  0  0  0  0  0
  191.6058  150.6217    1.2180 N   0  0  0  0  0  2  0  0  0  0  0  0
  192.6422  150.4907    0.1441 C   0  0  2  0  0  0  0  0  0  0  0  0
  194.0427  150.6133    0.7903 C   0  0  2  0  0  0  0  0  0  0  0  0
  195.1650  150.6197   -0.2586 C   0  0  1  0  0  0  0  0  0  0  0  0
  194.8563  151.6505   -1.3567 C   0  0  2  0  0  0  0  0  0  0  0  0
  193.5425  151.4851   -1.9043 O   0  0  0  0  0  0  0  0  0  0  0  0
  192.4994  151.5823   -0.9428 C   0  0  2  0  0  0  0  0  0  0  0  0
  192.4737  152.8676   -0.3226 O   0  0  0  0  0  0  0  0  0  0  0  0
  195.8489  151.5867   -2.5328 C   0  0  2  0  0  0  0  0  0  0  0  0
  196.0430  150.2640   -3.0447 O   0  0  0  0  0  0  0  0  0  0  0  0
  194.2248  149.4855    1.6804 O   0  0  0  0  0  0  0  0  0  0  0  0
  197.9407  154.1398   -0.3744 C   0  0  2  0  0  0  0  0  0  0  0  0
  199.0619  153.2024    0.0186 C   0  0  0  0  0  0  0  0  0  0  0  0
  199.9622  153.5891    0.7659 O   0  0  0  0  0  0  0  0  0  0  0  0
  198.9436  152.0077   -0.5654 N   0  0  0  0  0  2  0  0  0  0  0  0
  198.8421  150.8559    0.4057 C   0  0  2  0  0  0  0  0  0  0  0  0
  200.0347  149.8738    0.1743 C   0  0  2  0  0  0  0  0  0  0  0  0
  200.5320  149.2143    1.4236 C   0  0  0  0  0  3  0  0  0  0  0  0
  197.3403  149.1391    1.3140 O   0  0  0  0  0  0  0  0  0  0  0  0
  197.4768  150.0822    0.2736 C   0  0  2  0  0  0  0  0  0  0  0  0
  197.4437  149.3242   -0.9203 O   0  0  0  0  0  0  0  0  0  0  0  0
  199.3948  146.7182    1.3125 C   0  0  2  0  0  0  0  0  0  0  0  0
  200.0830  147.0452    2.5057 O   0  0  0  0  0  0  0  0  0  0  0  0
  201.1628  150.5541   -0.4147 O   0  0  0  0  0  0  0  0  0  0  0  0
  205.3064  151.3895    1.5151 C   0  0  2  0  0  0  0  0  0  0  0  0
  204.0770  150.4670    1.3611 C   0  0  1  0  0  0  0  0  0  0  0  0
  204.3680  149.3208    0.3678 C   0  0  1  0  0  0  0  0  0  0  0  0
  203.4326  148.0849    0.4601 C   0  0  2  0  0  0  0  0  0  0  0  0
  202.9772  147.8166    1.9035 C   0  0  2  0  0  0  0  0  0  0  0  0
  202.5944  149.1178    2.6384 C   0  0  1  0  0  0  0  0  0  0  0  0
  203.7617  149.9645    2.6676 O   0  0  0  0  0  0  0  0  0  0  0  0
  204.0260  147.1330    2.6353 O   0  0  0  0  0  0  0  0  0  0  0  0
  204.3568  149.8033   -0.9894 O   0  0  0  0  0  0  0  0  0  0  0  0
  200.9197  143.7291    1.1507 C   0  0  2  0  0  0  0  0  0  0  0  0
  202.1213  143.9977    0.2354 C   0  0  2  0  0  0  0  0  0  0  0  0
  203.2252  142.9470    0.4492 C   0  0  2  0  0  0  0  0  0  0  0  0
  204.4686  143.2952   -0.3964 C   0  0  1  0  0  0  0  0  0  0  0  0
  204.8598  144.7609   -0.1797 C   0  0  1  0  0  0  0  0  0  0  0  0
  203.6620  145.7285   -0.3375 C   0  0  1  0  0  0  0  0  0  0  0  0
  202.6017  145.3212    0.5198 O   0  0  0  0  0  0  0  0  0  0  0  0
  205.4346  144.9250    1.1492 O   0  0  0  0  0  0  0  0  0  0  0  0
  202.7695  141.6291    0.1148 O   0  0  0  0  0  0  0  0  0  0  0  0
  199.8215  144.5447    0.7487 O   0  0  0  0  0  0  0  0  0  0  0  0
  208.9644  144.8542    0.6992 C   0  0  2  0  0  0  0  0  0  0  0  0
  208.2036  143.5265    0.5436 C   0  0  2  0  0  0  0  0  0  0  0  0
  209.1419  142.3201    0.6153 C   0  0  2  0  0  0  0  0  0  0  0  0
  208.3183  141.0428    0.4197 C   0  0  1  0  0  0  0  0  0  0  0  0
  207.4720  141.1142   -0.8556 C   0  0  1  0  0  0  0  0  0  0  0  0
  206.6489  142.4183   -0.9235 C   0  0  2  0  0  0  0  0  0  0  0  0
  207.5183  143.5351   -0.7243 O   0  0  0  0  0  0  0  0  0  0  0  0
  208.3819  141.0274   -1.9785 O   0  0  0  0  0  0  0  0  0  0  0  0
  209.2331  139.9326    0.3503 O   0  0  0  0  0  0  0  0  0  0  0  0
  209.8239  142.2542    1.8671 O   0  0  0  0  0  0  0  0  0  0  0  0
  208.0946  145.9874    0.6681 O   0  0  0  0  0  0  0  0  0  0  0  0
  210.0229  153.3128    1.1957 C   0  0  2  0  0  0  0  0  0  0  0  0
  208.9861  153.0392    0.0870 C   0  0  2  0  0  0  0  0  0  0  0  0
  208.7158  154.3138   -0.7645 C   0  0  1  0  0  0  0  0  0  0  0  0
  207.2606  154.4047   -1.2637 C   0  0  1  0  0  0  0  0  0  0  0  0
  206.7799  152.9659   -1.5199 C   0  0  1  0  0  0  0  0  0  0  0  0
  206.7840  152.1222   -0.2165 C   0  0  1  0  0  0  0  0  0  0  0  0
  207.7918  152.5460    0.7095 O   0  0  0  0  0  0  0  0  0  0  0  0
  205.5022  152.9447   -2.1530 O   0  0  0  0  0  0  0  0  0  0  0  0
  209.0325  155.5223   -0.0571 O   0  0  0  0  0  0  0  0  0  0  0  0
  202.1123  154.0197   -1.4437 C   0  0  2  0  0  0  0  0  0  0  0  0
  203.0111  155.1918   -1.0345 C   0  0  1  0  0  0  0  0  0  0  0  0
  202.5305  155.9622    0.1994 C   0  0  1  0  0  0  0  0  0  0  0  0
  203.4557  157.1861    0.3284 C   0  0  2  0  0  0  0  0  0  0  0  0
  204.9138  156.7516    0.4686 C   0  0  2  0  0  0  0  0  0  0  0  0
  205.3086  155.7121   -0.6113 C   0  0  2  0  0  0  0  0  0  0  0  0
  204.3311  154.6915   -0.7636 O   0  0  0  0  0  0  0  0  0  0  0  0
  205.1109  156.2490    1.8016 O   0  0  0  0  0  0  0  0  0  0  0  0
  203.0845  157.9797    1.4696 O   0  0  0  0  0  0  0  0  0  0  0  0
  201.1872  156.4351    0.0991 O   0  0  0  0  0  0  0  0  0  0  0  0
  202.5387  153.5474   -2.7352 O   0  0  0  0  0  0  0  0  0  0  0  0
  213.4970  154.4170    0.8427 C   0  0  2  0  0  0  0  0  0  0  0  0
  213.5882  153.0507    0.1437 C   0  0  1  0  0  0  0  0  0  0  0  0
  214.4461  152.0757    0.9586 C   0  0  1  0  0  0  0  0  0  0  0  0
  213.9664  150.6427    0.7458 C   0  0  2  0  0  0  0  0  0  0  0  0
  212.5314  150.5415    1.2424 C   0  0  2  0  0  0  0  0  0  0  0  0
  211.6245  151.6110    0.5858 C   0  0  2  0  0  0  0  0  0  0  0  0
  212.2876  152.5699   -0.2358 O   0  0  0  0  0  0  0  0  0  0  0  0
  212.5673  150.6931    2.6837 O   0  0  0  0  0  0  0  0  0  0  0  0
  214.8167  149.7634    1.5081 O   0  0  0  0  0  0  0  0  0  0  0  0
  215.8247  152.1755    0.5721 O   0  0  0  0  0  0  0  0  0  0  0  0
  212.9620  155.4009   -0.0458 O   0  0  0  0  0  0  0  0  0  0  0  0
  196.3892  150.9950    0.3914 O   0  0  0  0  0  0  0  0  0  0  0  0
  201.4848  149.8688    2.1487 O   0  0  0  0  0  0  0  0  0  0  0  0
  204.2385  146.9898   -0.0186 O   0  0  0  0  0  0  0  0  0  0  0  0
  205.5526  142.4070   -0.0102 O   0  0  0  0  0  0  0  0  0  0  0  0
  205.4876  152.2273    0.3761 O   0  0  0  0  0  0  0  0  0  0  0  0
  206.5563  155.1236   -0.2302 O   0  0  0  0  0  0  0  0  0  0  0  0
  210.8027  152.1820    1.6107 O   0  0  0  0  0  0  0  0  0  0  0  0
  188.4152  150.9301    1.3970 H   0  0  0  0  0  0  0  0  0  0  0  0
  189.6694  151.4321    2.5338 H   0  0  0  0  0  0  0  0  0  0  0  0
  189.1680  149.7150    2.4619 H   0  0  0  0  0  0  0  0  0  0  0  0
  192.5952  149.5020   -0.3383 H   0  0  0  0  0  0  0  0  0  0  0  0
  194.1132  151.5067    1.4234 H   0  0  0  0  0  0  0  0  0  0  0  0
  195.1965  149.6049   -0.6730 H   0  0  0  0  0  0  0  0  0  0  0  0
  194.9301  152.6654   -0.9428 H   0  0  0  0  0  0  0  0  0  0  0  0
  191.5566  151.4761   -1.4864 H   0  0  0  0  0  0  0  0  0  0  0  0
  192.1071  152.6519    0.5594 H   0  0  0  0  0  0  0  0  0  0  0  0
  196.8264  151.9748   -2.2490 H   0  0  0  0  0  0  0  0  0  0  0  0
  195.4789  152.1950   -3.3629 H   0  0  0  0  0  0  0  0  0  0  0  0
  196.6846  149.8571   -2.4209 H   0  0  0  0  0  0  0  0  0  0  0  0
  193.3141  149.3640    2.0268 H   0  0  0  0  0  0  0  0  0  0  0  0
  197.1083  154.0408    0.3324 H   0  0  0  0  0  0  0  0  0  0  0  0
  197.5945  153.9571   -1.3967 H   0  0  0  0  0  0  0  0  0  0  0  0
  198.3198  155.1687   -0.3396 H   0  0  0  0  0  0  0  0  0  0  0  0
  198.8931  151.2258    1.4392 H   0  0  0  0  0  0  0  0  0  0  0  0
  199.7749  149.0909   -0.5418 H   0  0  0  0  0  0  0  0  0  0  0  0
  199.9446  148.5101    1.9902 H   0  0  0  0  0  0  0  0  0  0  0  0
  196.4425  149.3462    1.6467 H   0  0  0  0  0  0  0  0  0  0  0  0
  197.1434  148.4684   -0.5719 H   0  0  0  0  0  0  0  0  0  0  0  0
  199.9264  147.1412    0.4566 H   0  0  0  0  0  0  0  0  0  0  0  0
  198.3780  147.1163    1.3565 H   0  0  0  0  0  0  0  0  0  0  0  0
  199.3540  145.6311    1.2122 H   0  0  0  0  0  0  0  0  0  0  0  0
  200.1031  148.0154    2.5673 H   0  0  0  0  0  0  0  0  0  0  0  0
  200.7436  151.4215   -0.6361 H   0  0  0  0  0  0  0  0  0  0  0  0
  206.1989  150.7932    1.7508 H   0  0  0  0  0  0  0  0  0  0  0  0
  205.1482  152.0506    2.3743 H   0  0  0  0  0  0  0  0  0  0  0  0
  203.2547  151.0883    0.9900 H   0  0  0  0  0  0  0  0  0  0  0  0
  205.3929  148.9678    0.5443 H   0  0  0  0  0  0  0  0  0  0  0  0
  202.5819  148.2060   -0.2183 H   0  0  0  0  0  0  0  0  0  0  0  0
  202.1205  147.1384    1.9075 H   0  0  0  0  0  0  0  0  0  0  0  0
  202.3828  148.8731    3.6860 H   0  0  0  0  0  0  0  0  0  0  0  0
  204.5170  146.6049    1.9711 H   0  0  0  0  0  0  0  0  0  0  0  0
  203.4684  150.1997   -1.1268 H   0  0  0  0  0  0  0  0  0  0  0  0
  201.1494  143.9660    2.1948 H   0  0  0  0  0  0  0  0  0  0  0  0
  200.5891  142.6883    1.0888 H   0  0  0  0  0  0  0  0  0  0  0  0
  201.7672  143.9741   -0.8039 H   0  0  0  0  0  0  0  0  0  0  0  0
  203.5093  142.9132    1.5078 H   0  0  0  0  0  0  0  0  0  0  0  0
  204.2244  143.1107   -1.4509 H   0  0  0  0  0  0  0  0  0  0  0  0
  205.6444  145.0644   -0.8791 H   0  0  0  0  0  0  0  0  0  0  0  0
  203.3047  145.7550   -1.3734 H   0  0  0  0  0  0  0  0  0  0  0  0
  205.4036  144.0590    1.5952 H   0  0  0  0  0  0  0  0  0  0  0  0
  202.3387  141.6497   -0.7573 H   0  0  0  0  0  0  0  0  0  0  0  0
  200.1084  145.4735    0.8418 H   0  0  0  0  0  0  0  0  0  0  0  0
  209.6739  144.9840   -0.1252 H   0  0  0  0  0  0  0  0  0  0  0  0
  209.5185  144.8833    1.6440 H   0  0  0  0  0  0  0  0  0  0  0  0
  207.4728  143.4680    1.3585 H   0  0  0  0  0  0  0  0  0  0  0  0
  209.9122  142.3890   -0.1621 H   0  0  0  0  0  0  0  0  0  0  0  0
  207.6822  140.8742    1.2961 H   0  0  0  0  0  0  0  0  0  0  0  0
  206.8210  140.2356   -0.9121 H   0  0  0  0  0  0  0  0  0  0  0  0
  206.2671  142.5073   -1.9474 H   0  0  0  0  0  0  0  0  0  0  0  0
  208.6234  141.9418   -2.2280 H   0  0  0  0  0  0  0  0  0  0  0  0
  209.4320  139.8206   -0.6030 H   0  0  0  0  0  0  0  0  0  0  0  0
  210.1990  141.3517    1.9167 H   0  0  0  0  0  0  0  0  0  0  0  0
  207.1928  145.7094    0.9375 H   0  0  0  0  0  0  0  0  0  0  0  0
  209.5036  153.6585    2.0970 H   0  0  0  0  0  0  0  0  0  0  0  0
  210.7174  154.1038    0.9117 H   0  0  0  0  0  0  0  0  0  0  0  0
  209.3363  152.2521   -0.5905 H   0  0  0  0  0  0  0  0  0  0  0  0
  209.4022  154.2807   -1.6210 H   0  0  0  0  0  0  0  0  0  0  0  0
  207.2325  154.9967   -2.1907 H   0  0  0  0  0  0  0  0  0  0  0  0
  207.4754  152.5043   -2.2348 H   0  0  0  0  0  0  0  0  0  0  0  0
  206.9627  151.0709   -0.4809 H   0  0  0  0  0  0  0  0  0  0  0  0
  204.8997  153.1604   -1.3980 H   0  0  0  0  0  0  0  0  0  0  0  0
  208.2194  155.7185    0.4632 H   0  0  0  0  0  0  0  0  0  0  0  0
  201.0718  154.3446   -1.5507 H   0  0  0  0  0  0  0  0  0  0  0  0
  202.1892  153.1944   -0.7237 H   0  0  0  0  0  0  0  0  0  0  0  0
  203.0670  155.8662   -1.9019 H   0  0  0  0  0  0  0  0  0  0  0  0
  202.6006  155.3593    1.1121 H   0  0  0  0  0  0  0  0  0  0  0  0
  203.3467  157.8327   -0.5495 H   0  0  0  0  0  0  0  0  0  0  0  0
  205.5883  157.6072    0.3988 H   0  0  0  0  0  0  0  0  0  0  0  0
  205.4076  156.2227   -1.5802 H   0  0  0  0  0  0  0  0  0  0  0  0
  204.5571  156.8157    2.3741 H   0  0  0  0  0  0  0  0  0  0  0  0
  202.1045  157.9837    1.4407 H   0  0  0  0  0  0  0  0  0  0  0  0
  200.6175  155.6517    0.2926 H   0  0  0  0  0  0  0  0  0  0  0  0
  203.3766  153.0691   -2.5921 H   0  0  0  0  0  0  0  0  0  0  0  0
  214.4894  154.7656    1.1503 H   0  0  0  0  0  0  0  0  0  0  0  0
  212.8542  154.3721    1.7283 H   0  0  0  0  0  0  0  0  0  0  0  0
  214.0935  153.2332   -0.8139 H   0  0  0  0  0  0  0  0  0  0  0  0
  214.4174  152.3266    2.0267 H   0  0  0  0  0  0  0  0  0  0  0  0
  214.0542  150.3505   -0.3067 H   0  0  0  0  0  0  0  0  0  0  0  0
  212.1271  149.5371    1.0698 H   0  0  0  0  0  0  0  0  0  0  0  0
  210.9718  151.0621   -0.1004 H   0  0  0  0  0  0  0  0  0  0  0  0
  211.7021  151.1011    2.9154 H   0  0  0  0  0  0  0  0  0  0  0  0
  214.4272  149.7638    2.4099 H   0  0  0  0  0  0  0  0  0  0  0  0
  216.2405  151.3558    0.9101 H   0  0  0  0  0  0  0  0  0  0  0  0
  212.1047  155.0645   -0.3654 H   0  0  0  0  0  0  0  0  0  0  0  0
  1  2  1  0
  1 96  1  6
  1 97  1  0
  1 98  1  0
  2  3  2  0
  2  4  1  0
  5  4  1  0
  5  6  1  0
  5 99  1  6
  6  7  1  0
  6 14  1  0
  6100  1  1
  7  8  1  0
  7 89  1  0
  7101  1  6
  8  9  1  0
  8 12  1  0
  8102  1  1
  9 10  1  0
 10 11  1  0
 10  5  1  0
 10103  1  6
 11104  1  0
 12 13  1  0
 12105  1  1
 12106  1  0
 13107  1  0
 14108  1  0
 15 16  1  0
 15109  1  1
 15110  1  0
 15111  1  0
 16 17  2  0
 16 18  1  0
 19 18  1  0
 19 20  1  0
 19112  1  1
 20 21  1  0
 20 27  1  0
 20113  1  6
 21 90  1  0
 21114  1  0
 23 22  1  1
 22115  1  0
 23 24  1  0
 23 19  1  0
 23 89  1  0
 24116  1  0
 25 26  1  0
 25117  1  6
 25118  1  0
 25119  1  0
 26120  1  0
 27121  1  0
 28122  1  1
 28123  1  0
 29 28  1  0
 29 30  1  0
 29124  1  6
 30 31  1  0
 30 36  1  0
 30125  1  1
 31 32  1  0
 31 91  1  0
 31126  1  1
 32 33  1  0
 32 35  1  0
 32127  1  6
 33 34  1  0
 33 90  1  0
 33128  1  1
 34 29  1  0
 35129  1  0
 36130  1  0
 37 46  1  0
 37131  1  1
 37132  1  0
 38 37  1  0
 38 39  1  0
 38133  1  6
 39 40  1  0
 39 45  1  0
 39134  1  1
 40 41  1  0
 40 92  1  0
 40135  1  1
 41 42  1  0
 41 44  1  0
 41136  1  6
 42 43  1  0
 42 91  1  0
 42137  1  6
 43 38  1  0
 44138  1  0
 45139  1  0
 46140  1  0
 47 57  1  0
 47141  1  6
 47142  1  0
 48 47  1  0
 48 49  1  0
 48143  1  1
 49 50  1  0
 49 56  1  0
 49144  1  6
 50 51  1  0
 50 55  1  0
 50145  1  1
 51 52  1  0
 51 54  1  0
 51146  1  1
 52 53  1  0
 52 92  1  0
 52147  1  1
 53 48  1  0
 54148  1  0
 55149  1  0
 56150  1  0
 57151  1  0
 58152  1  1
 58153  1  0
 59 58  1  0
 59 60  1  0
 59154  1  6
 60 61  1  0
 60 66  1  0
 60155  1  1
 61 62  1  0
 61 94  1  0
 61156  1  1
 62 63  1  0
 62 65  1  0
 62157  1  6
 63 64  1  0
 63 93  1  0
 63158  1  1
 64 59  1  0
 65159  1  0
 66160  1  0
 67 77  1  0
 67161  1  6
 67162  1  0
 68 67  1  0
 68 69  1  0
 68163  1  6
 69 70  1  0
 69 76  1  0
 69164  1  1
 70 71  1  0
 70 75  1  0
 70165  1  6
 71 72  1  0
 71 74  1  0
 71166  1  6
 72 73  1  0
 72 94  1  0
 72167  1  6
 73 68  1  0
 74168  1  0
 75169  1  0
 76170  1  0
 77171  1  0
 78 88  1  0
 78172  1  1
 78173  1  0
 79 78  1  0
 79 80  1  0
 79174  1  6
 80 81  1  0
 80 87  1  0
 80175  1  1
 81 82  1  0
 81 86  1  0
 81176  1  6
 82 83  1  0
 82 85  1  0
 82177  1  1
 83 84  1  0
 83 95  1  0
 83178  1  6
 84 79  1  0
 85179  1  0
 86180  1  0
 87181  1  0
 88182  1  0
 93 28  1  0
 95 58  1  0
M  RAD  3   4   2  18   2  21   2
M  END
>  <step>  (1) 
100

>  <phase>  (1) 
minimization

>  <energy>  (1) 
654.3438

$$$$
chair_1C4_beta_rank1_Q0.795_theta174.7_phi45.0_E15.2
     RDKit          3D

182187  0  0  0  0  0  0  0  0999 V2000
  189.5910  150.5399    2.1697 C   0  0  2  0  0  0  0  0  0  0  0  0
  190.5422  150.1926    1.0515 C   0  0  0  0  0  0  0  0  0  0  0  0
  190.1585  149.5482    0.0793 O   0  0  0  0  0  0  0  0  0  0  0  0
  191.7698  150.6510    1.3096 N   0  0  0  0  0  2  0  0  0  0  0  0
  192.7385  150.4499    0.1893 C   0  0  2  0  0  0  0  0  0  0  0  0
  194.1580  150.7341    0.7249 C   0  0  2  0  0  0  0  0  0  0  0  0
  195.2009  150.6899   -0.3922 C   0  0  1  0  0  0  0  0  0  0  0  0
  194.7724  151.6406   -1.5165 C   0  0  2  0  0  0  0  0  0  0  0  0
  193.4664  151.3053   -2.0058 O   0  0  0  0  0  0  0  0  0  0  0  0
  192.4464  151.3823   -1.0130 C   0  0  2  0  0  0  0  0  0  0  0  0
  192.2873  152.7216   -0.5423 O   0  0  0  0  0  0  0  0  0  0  0  0
  195.7484  151.6335   -2.7079 C   0  0  2  0  0  0  0  0  0  0  0  0
  196.0862  150.3197   -3.1625 O   0  0  0  0  0  0  0  0  0  0  0  0
  194.4769  149.7333    1.7184 O   0  0  0  0  0  0  0  0  0  0  0  0
  197.9000  153.9949   -0.4830 C   0  0  2  0  0  0  0  0  0  0  0  0
  199.1273  153.1805   -0.1635 C   0  0  0  0  0  0  0  0  0  0  0  0
  200.0591  153.6634    0.4744 O   0  0  0  0  0  0  0  0  0  0  0  0
  199.0958  151.9647   -0.7092 N   0  0  0  0  0  2  0  0  0  0  0  0
  198.8814  150.8800    0.3357 C   0  0  2  0  0  0  0  0  0  0  0  0
  200.0572  149.8519    0.2746 C   0  0  2  0  0  0  0  0  0  0  0  0
  200.5102  149.3608    1.6154 C   0  0  0  0  0  3  0  0  0  0  0  0
  197.2808  149.2740    1.2403 O   0  0  0  0  0  0  0  0  0  0  0  0
  197.4987  150.1551    0.1607 C   0  0  2  0  0  0  0  0  0  0  0  0
  197.5111  149.3556   -1.0062 O   0  0  0  0  0  0  0  0  0  0  0  0
  199.3948  146.7182    1.3125 C   0  0  2  0  0  0  0  0  0  0  0  0
  200.0830  147.0452    2.5057 O   0  0  0  0  0  0  0  0  0  0  0  0
  201.2132  150.4329   -0.3704 O   0  0  0  0  0  0  0  0  0  0  0  0
  205.3305  151.5316    1.6681 C   0  0  2  0  0  0  0  0  0  0  0  0
  204.0747  150.6392    1.5259 C   0  0  1  0  0  0  0  0  0  0  0  0
  204.3150  149.5070    0.5029 C   0  0  1  0  0  0  0  0  0  0  0  0
  203.4743  148.2149    0.6707 C   0  0  2  0  0  0  0  0  0  0  0  0
  202.9728  147.9820    2.1048 C   0  0  2  0  0  0  0  0  0  0  0  0
  202.5836  149.3039    2.8009 C   0  0  1  0  0  0  0  0  0  0  0  0
  203.7736  150.1213    2.8310 O   0  0  0  0  0  0  0  0  0  0  0  0
  203.9886  147.2836    2.8770 O   0  0  0  0  0  0  0  0  0  0  0  0
  204.1285  149.9929   -0.8382 O   0  0  0  0  0  0  0  0  0  0  0  0
  201.0065  143.8614    1.1257 C   0  0  2  0  0  0  0  0  0  0  0  0
  202.2152  144.1905    0.2470 C   0  0  2  0  0  0  0  0  0  0  0  0
  203.2796  143.0828    0.3295 C   0  0  2  0  0  0  0  0  0  0  0  0
  204.5455  143.4838   -0.4565 C   0  0  1  0  0  0  0  0  0  0  0  0
  204.9786  144.9011   -0.0568 C   0  0  1  0  0  0  0  0  0  0  0  0
  203.8128  145.9129   -0.1490 C   0  0  1  0  0  0  0  0  0  0  0  0
  202.7501  145.4520    0.6793 O   0  0  0  0  0  0  0  0  0  0  0  0
  205.4683  144.8877    1.3080 O   0  0  0  0  0  0  0  0  0  0  0  0
  202.7548  141.8384   -0.1745 O   0  0  0  0  0  0  0  0  0  0  0  0
  199.9610  144.7934    0.8638 O   0  0  0  0  0  0  0  0  0  0  0  0
  209.0307  144.7280    0.6544 C   0  0  2  0  0  0  0  0  0  0  0  0
  208.1991  143.4549    0.4461 C   0  0  2  0  0  0  0  0  0  0  0  0
  209.0528  142.1896    0.5536 C   0  0  2  0  0  0  0  0  0  0  0  0
  208.1573  140.9691    0.3056 C   0  0  1  0  0  0  0  0  0  0  0  0
  207.3847  141.1066   -1.0111 C   0  0  1  0  0  0  0  0  0  0  0  0
  206.6422  142.4596   -1.0837 C   0  0  2  0  0  0  0  0  0  0  0  0
  207.5748  143.5204   -0.8538 O   0  0  0  0  0  0  0  0  0  0  0  0
  208.3384  140.9814   -2.0917 O   0  0  0  0  0  0  0  0  0  0  0  0
  208.9998  139.8008    0.2735 O   0  0  0  0  0  0  0  0  0  0  0  0
  209.6720  142.0737    1.8362 O   0  0  0  0  0  0  0  0  0  0  0  0
  208.2130  145.9007    0.6088 O   0  0  0  0  0  0  0  0  0  0  0  0
  210.1107  153.4424    1.0627 C   0  0  2  0  0  0  0  0  0  0  0  0
  209.0097  153.1193    0.0355 C   0  0  2  0  0  0  0  0  0  0  0  0
  208.6360  154.3872   -0.7850 C   0  0  1  0  0  0  0  0  0  0  0  0
  207.1672  154.3841   -1.2515 C   0  0  1  0  0  0  0  0  0  0  0  0
  206.7703  152.9129   -1.4684 C   0  0  1  0  0  0  0  0  0  0  0  0
  206.8129  152.1372   -0.1243 C   0  0  1  0  0  0  0  0  0  0  0  0
  207.8817  152.5677    0.7315 O   0  0  0  0  0  0  0  0  0  0  0  0
  205.5072  152.7820   -2.1174 O   0  0  0  0  0  0  0  0  0  0  0  0
  208.8881  155.5982   -0.0551 O   0  0  0  0  0  0  0  0  0  0  0  0
  202.1621  153.9150   -1.8326 C   0  0  2  0  0  0  0  0  0  0  0  0
  202.9527  155.0723   -1.2233 C   0  0  1  0  0  0  0  0  0  0  0  0
  202.3587  155.6599    0.0566 C   0  0  1  0  0  0  0  0  0  0  0  0
  203.2148  156.8784    0.4324 C   0  0  2  0  0  0  0  0  0  0  0  0
  204.6769  156.4775    0.6248 C   0  0  2  0  0  0  0  0  0  0  0  0
  205.1811  155.6256   -0.5726 C   0  0  2  0  0  0  0  0  0  0  0  0
  204.2730  154.5925   -0.9250 O   0  0  0  0  0  0  0  0  0  0  0  0
  204.7950  155.7773    1.8789 O   0  0  0  0  0  0  0  0  0  0  0  0
  202.7167  157.4699    1.6466 O   0  0  0  0  0  0  0  0  0  0  0  0
  201.0147  156.1138   -0.0969 O   0  0  0  0  0  0  0  0  0  0  0  0
  202.7554  153.5705   -3.0975 O   0  0  0  0  0  0  0  0  0  0  0  0
  213.6653  154.2781    0.9858 C   0  0  2  0  0  0  0  0  0  0  0  0
  213.7453  152.9641    0.1968 C   0  0  1  0  0  0  0  0  0  0  0  0
  214.5361  151.8956    0.9618 C   0  0  1  0  0  0  0  0  0  0  0  0
  213.9162  150.5144    0.7677 C   0  0  2  0  0  0  0  0  0  0  0  0
  212.4814  150.5583    1.2671 C   0  0  2  0  0  0  0  0  0  0  0  0
  211.6733  151.6674    0.5529 C   0  0  2  0  0  0  0  0  0  0  0  0
  212.4428  152.5569   -0.2556 O   0  0  0  0  0  0  0  0  0  0  0  0
  212.5339  150.7819    2.6976 O   0  0  0  0  0  0  0  0  0  0  0  0
  214.6829  149.5704    1.5380 O   0  0  0  0  0  0  0  0  0  0  0  0
  215.8999  151.8670    0.5124 O   0  0  0  0  0  0  0  0  0  0  0  0
  213.2283  155.3427    0.1385 O   0  0  0  0  0  0  0  0  0  0  0  0
  196.4608  151.1188    0.1388 O   0  0  0  0  0  0  0  0  0  0  0  0
  201.5035  150.0534    2.2463 O   0  0  0  0  0  0  0  0  0  0  0  0
  204.3781  147.1354    0.3240 O   0  0  0  0  0  0  0  0  0  0  0  0
  205.5452  142.4756   -0.1820 O   0  0  0  0  0  0  0  0  0  0  0  0
  205.5453  152.3261    0.5083 O   0  0  0  0  0  0  0  0  0  0  0  0
  206.4482  155.0743   -0.2126 O   0  0  0  0  0  0  0  0  0  0  0  0
  210.8672  152.3208    1.5386 O   0  0  0  0  0  0  0  0  0  0  0  0
  188.5763  150.6084    1.7646 H   0  0  0  0  0  0  0  0  0  0  0  0
  189.8303  151.5081    2.6212 H   0  0  0  0  0  0  0  0  0  0  0  0
  189.6194  149.7572    2.9325 H   0  0  0  0  0  0  0  0  0  0  0  0
  192.7334  149.4070   -0.1632 H   0  0  0  0  0  0  0  0  0  0  0  0
  194.2057  151.7000    1.2440 H   0  0  0  0  0  0  0  0  0  0  0  0
  195.2340  149.6574   -0.7601 H   0  0  0  0  0  0  0  0  0  0  0  0
  194.7476  152.6758   -1.1482 H   0  0  0  0  0  0  0  0  0  0  0  0
  191.5062  151.1040   -1.4992 H   0  0  0  0  0  0  0  0  0  0  0  0
  191.9730  152.5675    0.3729 H   0  0  0  0  0  0  0  0  0  0  0  0
  196.6800  152.1443   -2.4560 H   0  0  0  0  0  0  0  0  0  0  0  0
  195.2997  152.1574   -3.5581 H   0  0  0  0  0  0  0  0  0  0  0  0
  196.7585  149.9971   -2.5205 H   0  0  0  0  0  0  0  0  0  0  0  0
  193.6065  149.6160    2.1591 H   0  0  0  0  0  0  0  0  0  0  0  0
  197.0243  153.5932    0.0305 H   0  0  0  0  0  0  0  0  0  0  0  0
  197.7308  154.0395   -1.5613 H   0  0  0  0  0  0  0  0  0  0  0  0
  198.0511  155.0179   -0.1267 H   0  0  0  0  0  0  0  0  0  0  0  0
  198.8713  151.3254    1.3441 H   0  0  0  0  0  0  0  0  0  0  0  0
  199.7946  148.9832   -0.3339 H   0  0  0  0  0  0  0  0  0  0  0  0
  199.8779  148.7864    2.2740 H   0  0  0  0  0  0  0  0  0  0  0  0
  196.3761  149.5181    1.5335 H   0  0  0  0  0  0  0  0  0  0  0  0
  197.1430  148.5269   -0.6574 H   0  0  0  0  0  0  0  0  0  0  0  0
  199.9264  147.1412    0.4566 H   0  0  0  0  0  0  0  0  0  0  0  0
  198.3780  147.1163    1.3565 H   0  0  0  0  0  0  0  0  0  0  0  0
  199.3540  145.6311    1.2122 H   0  0  0  0  0  0  0  0  0  0  0  0
  200.1031  148.0154    2.5673 H   0  0  0  0  0  0  0  0  0  0  0  0
  200.8161  151.2773   -0.7007 H   0  0  0  0  0  0  0  0  0  0  0  0
  206.2069  150.9241    1.9298 H   0  0  0  0  0  0  0  0  0  0  0  0
  205.1816  152.2223    2.5071 H   0  0  0  0  0  0  0  0  0  0  0  0
  203.2622  151.2928    1.1846 H   0  0  0  0  0  0  0  0  0  0  0  0
  205.3740  149.2223    0.5615 H   0  0  0  0  0  0  0  0  0  0  0  0
  202.6446  148.2142   -0.0419 H   0  0  0  0  0  0  0  0  0  0  0  0
  202.1066  147.3134    2.0925 H   0  0  0  0  0  0  0  0  0  0  0  0
  202.3406  149.0940    3.8496 H   0  0  0  0  0  0  0  0  0  0  0  0
  204.8281  147.4564    2.4191 H   0  0  0  0  0  0  0  0  0  0  0  0
  203.1882  150.2891   -0.8911 H   0  0  0  0  0  0  0  0  0  0  0  0
  201.2551  143.9270    2.1884 H   0  0  0  0  0  0  0  0  0  0  0  0
  200.6160  142.8635    0.9126 H   0  0  0  0  0  0  0  0  0  0  0  0
  201.8663  144.3065   -0.7875 H   0  0  0  0  0  0  0  0  0  0  0  0
  203.5546  142.8987    1.3782 H   0  0  0  0  0  0  0  0  0  0  0  0
  204.3031  143.4442   -1.5263 H   0  0  0  0  0  0  0  0  0  0  0  0
  205.8061  145.2428   -0.6791 H   0  0  0  0  0  0  0  0  0  0  0  0
  203.4611  146.0516   -1.1769 H   0  0  0  0  0  0  0  0  0  0  0  0
  204.7741  145.3020    1.8543 H   0  0  0  0  0  0  0  0  0  0  0  0
  202.4861  141.9673   -1.1003 H   0  0  0  0  0  0  0  0  0  0  0  0
  200.3206  145.6830    1.0419 H   0  0  0  0  0  0  0  0  0  0  0  0
  209.7818  144.8335   -0.1349 H   0  0  0  0  0  0  0  0  0  0  0  0
  209.5394  144.7176    1.6226 H   0  0  0  0  0  0  0  0  0  0  0  0
  207.4269  143.4363    1.2232 H   0  0  0  0  0  0  0  0  0  0  0  0
  209.8617  142.2101   -0.1872 H   0  0  0  0  0  0  0  0  0  0  0  0
  207.4687  140.8373    1.1482 H   0  0  0  0  0  0  0  0  0  0  0  0
  206.6853  140.2699   -1.1101 H   0  0  0  0  0  0  0  0  0  0  0  0
  206.2747  142.5833   -2.1108 H   0  0  0  0  0  0  0  0  0  0  0  0
  208.6384  141.8855   -2.3126 H   0  0  0  0  0  0  0  0  0  0  0  0
  209.2317  139.6754   -0.6701 H   0  0  0  0  0  0  0  0  0  0  0  0
  209.9369  141.1352    1.9149 H   0  0  0  0  0  0  0  0  0  0  0  0
  207.3442  145.6654    0.9964 H   0  0  0  0  0  0  0  0  0  0  0  0
  209.6518  153.8849    1.9547 H   0  0  0  0  0  0  0  0  0  0  0  0
  210.8112  154.1787    0.6664 H   0  0  0  0  0  0  0  0  0  0  0  0
  209.3520  152.3467   -0.6603 H   0  0  0  0  0  0  0  0  0  0  0  0
  209.3005  154.4144   -1.6569 H   0  0  0  0  0  0  0  0  0  0  0  0
  207.0728  154.9643   -2.1778 H   0  0  0  0  0  0  0  0  0  0  0  0
  207.5021  152.4697   -2.1557 H   0  0  0  0  0  0  0  0  0  0  0  0
  206.9383  151.0692   -0.3400 H   0  0  0  0  0  0  0  0  0  0  0  0
  204.8773  152.9652   -1.3759 H   0  0  0  0  0  0  0  0  0  0  0  0
  208.0732  155.7239    0.4835 H   0  0  0  0  0  0  0  0  0  0  0  0
  201.1255  154.1976   -2.0297 H   0  0  0  0  0  0  0  0  0  0  0  0
  202.1960  153.0260   -1.1973 H   0  0  0  0  0  0  0  0  0  0  0  0
  203.0328  155.8467   -1.9991 H   0  0  0  0  0  0  0  0  0  0  0  0
  202.3824  154.9372    0.8820 H   0  0  0  0  0  0  0  0  0  0  0  0
  203.1316  157.6466   -0.3459 H   0  0  0  0  0  0  0  0  0  0  0  0
  205.3090  157.3652    0.7369 H   0  0  0  0  0  0  0  0  0  0  0  0
  205.3150  156.2822   -1.4416 H   0  0  0  0  0  0  0  0  0  0  0  0
  204.1513  156.2126    2.4738 H   0  0  0  0  0  0  0  0  0  0  0  0
  201.7410  157.4038    1.5588 H   0  0  0  0  0  0  0  0  0  0  0  0
  200.4674  155.3022    0.0644 H   0  0  0  0  0  0  0  0  0  0  0  0
  203.6368  153.1979   -2.8959 H   0  0  0  0  0  0  0  0  0  0  0  0
  214.6467  154.5615    1.3783 H   0  0  0  0  0  0  0  0  0  0  0  0
  212.9628  154.2040    1.8208 H   0  0  0  0  0  0  0  0  0  0  0  0
  214.2851  153.1958   -0.7309 H   0  0  0  0  0  0  0  0  0  0  0  0
  214.5903  152.1410    2.0296 H   0  0  0  0  0  0  0  0  0  0  0  0
  213.9761  150.2018   -0.2804 H   0  0  0  0  0  0  0  0  0  0  0  0
  211.9915  149.5866    1.1457 H   0  0  0  0  0  0  0  0  0  0  0  0
  211.0053  151.1534   -0.1460 H   0  0  0  0  0  0  0  0  0  0  0  0
  211.6975  151.2553    2.9078 H   0  0  0  0  0  0  0  0  0  0  0  0
  214.3130  149.6273    2.4455 H   0  0  0  0  0  0  0  0  0  0  0  0
  216.2588  151.0192    0.8453 H   0  0  0  0  0  0  0  0  0  0  0  0
  212.4598  155.0125   -0.3612 H   0  0  0  0  0  0  0  0  0  0  0  0
  1  2  1  0
  1 96  1  6
  1 97  1  0
  1 98  1  0
  2  3  2  0
  2  4  1  0
  5  4  1  0
  5  6  1  0
  5 99  1  6
  6  7  1  0
  6 14  1  0
  6100  1  1
  7  8  1  0
  7 89  1  0
  7101  1  6
  8  9  1  0
  8 12  1  0
  8102  1  1
  9 10  1  0
 10 11  1  0
 10  5  1  0
 10103  1  6
 11104  1  0
 12 13  1  0
 12105  1  1
 12106  1  0
 13107  1  0
 14108  1  0
 15 16  1  0
 15109  1  1
 15110  1  0
 15111  1  0
 16 17  2  0
 16 18  1  0
 19 18  1  0
 19 20  1  0
 19112  1  1
 20 21  1  0
 20 27  1  0
 20113  1  6
 21 90  1  0
 21114  1  0
 23 22  1  1
 22115  1  0
 23 24  1  0
 23 19  1  0
 23 89  1  0
 24116  1  0
 25 26  1  0
 25117  1  6
 25118  1  0
 25119  1  0
 26120  1  0
 27121  1  0
 28122  1  1
 28123  1  0
 29 28  1  0
 29 30  1  0
 29124  1  6
 30 31  1  0
 30 36  1  0
 30125  1  6
 31 32  1  0
 31 91  1  0
 31126  1  1
 32 33  1  0
 32 35  1  0
 32127  1  6
 33 34  1  0
 33 90  1  0
 33128  1  1
 34 29  1  0
 35129  1  0
 36130  1  0
 37 46  1  0
 37131  1  1
 37132  1  0
 38 37  1  0
 38 39  1  0
 38133  1  6
 39 40  1  0
 39 45  1  0
 39134  1  1
 40 41  1  0
 40 92  1  0
 40135  1  1
 41 42  1  0
 41 44  1  0
 41136  1  6
 42 43  1  0
 42 91  1  0
 42137  1  6
 43 38  1  0
 44138  1  0
 45139  1  0
 46140  1  0
 47 57  1  0
 47141  1  6
 47142  1  0
 48 47  1  0
 48 49  1  0
 48143  1  1
 49 50  1  0
 49 56  1  0
 49144  1  6
 50 51  1  0
 50 55  1  0
 50145  1  1
 51 52  1  0
 51 54  1  0
 51146  1  6
 52 53  1  0
 52 92  1  0
 52147  1  1
 53 48  1  0
 54148  1  0
 55149  1  0
 56150  1  0
 57151  1  0
 58152  1  1
 58153  1  0
 59 58  1  0
 59 60  1  0
 59154  1  6
 60 61  1  0
 60 66  1  0
 60155  1  1
 61 62  1  0
 61 94  1  0
 61156  1  1
 62 63  1  0
 62 65  1  0
 62157  1  6
 63 64  1  0
 63 93  1  0
 63158  1  1
 64 59  1  0
 65159  1  0
 66160  1  0
 67 77  1  0
 67161  1  6
 67162  1  0
 68 67  1  0
 68 69  1  0
 68163  1  6
 69 70  1  0
 69 76  1  0
 69164  1  1
 70 71  1  0
 70 75  1  0
 70165  1  6
 71 72  1  0
 71 74  1  0
 71166  1  1
 72 73  1  0
 72 94  1  0
 72167  1  6
 73 68  1  0
 74168  1  0
 75169  1  0
 76170  1  0
 77171  1  0
 78 88  1  0
 78172  1  1
 78173  1  0
 79 78  1  0
 79 80  1  0
 79174  1  6
 80 81  1  0
 80 87  1  0
 80175  1  1
 81 82  1  0
 81 86  1  0
 81176  1  6
 82 83  1  0
 82 85  1  0
 82177  1  1
 83 84  1  0
 83 95  1  0
 83178  1  6
 84 79  1  0
 85179  1  0
 86180  1  0
 87181  1  0
 88182  1  0
 93 28  1  0
 95 58  1  0
M  RAD  3   4   2  18   2  21   2
M  END
>  <step>  (1) 
150

>  <phase>  (1) 
minimization

>  <energy>  (1) 
635.5379

$$$$
chair_1C4_beta_rank1_Q0.795_theta174.7_phi45.0_E15.2
     RDKit          3D

182187  0  0  0  0  0  0  0  0999 V2000
  189.7391  150.4378    2.4162 C   0  0  2  0  0  0  0  0  0  0  0  0
  190.6313  150.0692    1.2581 C   0  0  0  0  0  0  0  0  0  0  0  0
  190.2127  149.3780    0.3329 O   0  0  0  0  0  0  0  0  0  0  0  0
  191.8531  150.5802    1.4251 N   0  0  0  0  0  2  0  0  0  0  0  0
  192.7796  150.3282    0.2797 C   0  0  2  0  0  0  0  0  0  0  0  0
  194.2112  150.6707    0.7465 C   0  0  2  0  0  0  0  0  0  0  0  0
  195.2151  150.5891   -0.4038 C   0  0  1  0  0  0  0  0  0  0  0  0
  194.7238  151.4708   -1.5586 C   0  0  2  0  0  0  0  0  0  0  0  0
  193.4130  151.0728   -1.9850 O   0  0  0  0  0  0  0  0  0  0  0  0
  192.4233  151.1801   -0.9650 C   0  0  2  0  0  0  0  0  0  0  0  0
  192.2413  152.5400   -0.5681 O   0  0  0  0  0  0  0  0  0  0  0  0
  195.6630  151.4327   -2.7790 C   0  0  2  0  0  0  0  0  0  0  0  0
  196.0407  150.1099   -3.1714 O   0  0  0  0  0  0  0  0  0  0  0  0
  194.5872  149.7335    1.7811 O   0  0  0  0  0  0  0  0  0  0  0  0
  197.9127  153.9503   -0.9197 C   0  0  2  0  0  0  0  0  0  0  0  0
  199.0830  153.1482   -0.4124 C   0  0  0  0  0  0  0  0  0  0  0  0
  199.9458  153.6615    0.2938 O   0  0  0  0  0  0  0  0  0  0  0  0
  199.0835  151.8989   -0.8764 N   0  0  0  0  0  2  0  0  0  0  0  0
  198.9037  150.8840    0.2372 C   0  0  2  0  0  0  0  0  0  0  0  0
  200.1010  149.8811    0.2279 C   0  0  2  0  0  0  0  0  0  0  0  0
  200.5468  149.4345    1.5899 C   0  0  0  0  0  3  0  0  0  0  0  0
  197.3469  149.2978    1.2541 O   0  0  0  0  0  0  0  0  0  0  0  0
  197.5338  150.1220    0.1231 C   0  0  2  0  0  0  0  0  0  0  0  0
  197.5459  149.2665   -1.0003 O   0  0  0  0  0  0  0  0  0  0  0  0
  199.3948  146.7182    1.3125 C   0  0  2  0  0  0  0  0  0  0  0  0
  200.0830  147.0452    2.5057 O   0  0  0  0  0  0  0  0  0  0  0  0
  201.2512  150.4805   -0.4116 O   0  0  0  0  0  0  0  0  0  0  0  0
  205.3939  151.6087    1.7021 C   0  0  2  0  0  0  0  0  0  0  0  0
  204.1151  150.7503    1.5590 C   0  0  1  0  0  0  0  0  0  0  0  0
  204.3292  149.6322    0.5107 C   0  0  1  0  0  0  0  0  0  0  0  0
  203.5009  148.3340    0.6867 C   0  0  2  0  0  0  0  0  0  0  0  0
  203.0449  148.1003    2.1390 C   0  0  2  0  0  0  0  0  0  0  0  0
  202.5953  149.4164    2.8034 C   0  0  1  0  0  0  0  0  0  0  0  0
  203.7934  150.2266    2.8596 O   0  0  0  0  0  0  0  0  0  0  0  0
  204.1404  147.5242    2.9049 O   0  0  0  0  0  0  0  0  0  0  0  0
  204.0946  150.1413   -0.8150 O   0  0  0  0  0  0  0  0  0  0  0  0
  200.9951  144.0383    1.1614 C   0  0  2  0  0  0  0  0  0  0  0  0
  202.1894  144.3443    0.2504 C   0  0  2  0  0  0  0  0  0  0  0  0
  203.2533  143.2399    0.3504 C   0  0  2  0  0  0  0  0  0  0  0  0
  204.5038  143.6261   -0.4622 C   0  0  1  0  0  0  0  0  0  0  0  0
  204.9625  145.0404   -0.0791 C   0  0  1  0  0  0  0  0  0  0  0  0
  203.7951  146.0534   -0.1794 C   0  0  1  0  0  0  0  0  0  0  0  0
  202.7138  145.6218    0.6380 O   0  0  0  0  0  0  0  0  0  0  0  0
  205.4786  145.0483    1.2788 O   0  0  0  0  0  0  0  0  0  0  0  0
  202.7249  141.9896   -0.1225 O   0  0  0  0  0  0  0  0  0  0  0  0
  199.9513  144.9798    0.9166 O   0  0  0  0  0  0  0  0  0  0  0  0
  209.0252  144.6340    0.8543 C   0  0  2  0  0  0  0  0  0  0  0  0
  208.1450  143.4224    0.5173 C   0  0  2  0  0  0  0  0  0  0  0  0
  208.9432  142.1164    0.5362 C   0  0  2  0  0  0  0  0  0  0  0  0
  208.0156  140.9584    0.1442 C   0  0  1  0  0  0  0  0  0  0  0  0
  207.2908  141.2499   -1.1758 C   0  0  1  0  0  0  0  0  0  0  0  0
  206.5986  142.6307   -1.1325 C   0  0  2  0  0  0  0  0  0  0  0  0
  207.5672  143.6256   -0.7901 O   0  0  0  0  0  0  0  0  0  0  0  0
  208.2714  141.1944   -2.2376 O   0  0  0  0  0  0  0  0  0  0  0  0
  208.8179  139.7672    0.0223 O   0  0  0  0  0  0  0  0  0  0  0  0
  209.5133  141.8560    1.8211 O   0  0  0  0  0  0  0  0  0  0  0  0
  208.2685  145.8476    0.8667 O   0  0  0  0  0  0  0  0  0  0  0  0
  210.1745  153.5470    0.9599 C   0  0  2  0  0  0  0  0  0  0  0  0
  209.0453  153.2025   -0.0265 C   0  0  2  0  0  0  0  0  0  0  0  0
  208.6163  154.4664   -0.8275 C   0  0  1  0  0  0  0  0  0  0  0  0
  207.1366  154.4247   -1.2573 C   0  0  1  0  0  0  0  0  0  0  0  0
  206.7841  152.9418   -1.4709 C   0  0  1  0  0  0  0  0  0  0  0  0
  206.8596  152.1831   -0.1187 C   0  0  1  0  0  0  0  0  0  0  0  0
  207.9539  152.6194    0.7031 O   0  0  0  0  0  0  0  0  0  0  0  0
  205.5242  152.7664   -2.1144 O   0  0  0  0  0  0  0  0  0  0  0  0
  208.8527  155.6775   -0.0928 O   0  0  0  0  0  0  0  0  0  0  0  0
  202.1903  153.9342   -1.9780 C   0  0  2  0  0  0  0  0  0  0  0  0
  202.9457  155.0703   -1.2871 C   0  0  1  0  0  0  0  0  0  0  0  0
  202.2928  155.5816   -0.0027 C   0  0  1  0  0  0  0  0  0  0  0  0
  203.1321  156.7611    0.5082 C   0  0  2  0  0  0  0  0  0  0  0  0
  204.5845  156.3418    0.7324 C   0  0  2  0  0  0  0  0  0  0  0  0
  205.1386  155.6119   -0.5210 C   0  0  2  0  0  0  0  0  0  0  0  0
  204.2623  154.5890   -0.9714 O   0  0  0  0  0  0  0  0  0  0  0  0
  204.6446  155.5171    1.9136 O   0  0  0  0  0  0  0  0  0  0  0  0
  202.5789  157.2521    1.7435 O   0  0  0  0  0  0  0  0  0  0  0  0
  200.9643  156.0637   -0.2016 O   0  0  0  0  0  0  0  0  0  0  0  0
  202.8503  153.6313   -3.2200 O   0  0  0  0  0  0  0  0  0  0  0  0
  213.8098  154.0525    1.2595 C   0  0  2  0  0  0  0  0  0  0  0  0
  213.8721  152.8476    0.3069 C   0  0  1  0  0  0  0  0  0  0  0  0
  214.6094  151.6520    0.9345 C   0  0  1  0  0  0  0  0  0  0  0  0
  213.8085  150.3568    0.7928 C   0  0  2  0  0  0  0  0  0  0  0  0
  212.4087  150.5825    1.3405 C   0  0  2  0  0  0  0  0  0  0  0  0
  211.6965  151.7101    0.5597 C   0  0  2  0  0  0  0  0  0  0  0  0
  212.5648  152.5420   -0.2127 O   0  0  0  0  0  0  0  0  0  0  0  0
  212.5446  150.9225    2.7422 O   0  0  0  0  0  0  0  0  0  0  0  0
  214.4830  149.3342    1.5485 O   0  0  0  0  0  0  0  0  0  0  0  0
  215.8953  151.4681    0.3158 O   0  0  0  0  0  0  0  0  0  0  0  0
  213.4576  155.2382    0.5413 O   0  0  0  0  0  0  0  0  0  0  0  0
  196.4811  151.0714    0.0589 O   0  0  0  0  0  0  0  0  0  0  0  0
  201.5362  150.1504    2.2007 O   0  0  0  0  0  0  0  0  0  0  0  0
  204.3820  147.2687    0.2736 O   0  0  0  0  0  0  0  0  0  0  0  0
  205.4979  142.6030   -0.2381 O   0  0  0  0  0  0  0  0  0  0  0  0
  205.6128  152.3998    0.5426 O   0  0  0  0  0  0  0  0  0  0  0  0
  206.4223  155.0791   -0.1910 O   0  0  0  0  0  0  0  0  0  0  0  0
  210.8861  152.4252    1.4959 O   0  0  0  0  0  0  0  0  0  0  0  0
  188.6995  150.2199    2.1506 H   0  0  0  0  0  0  0  0  0  0  0  0
  189.8089  151.5067    2.6399 H   0  0  0  0  0  0  0  0  0  0  0  0
  190.0060  149.8479    3.2979 H   0  0  0  0  0  0  0  0  0  0  0  0
  192.7835  149.2667   -0.0078 H   0  0  0  0  0  0  0  0  0  0  0  0
  194.2557  151.6650    1.2103 H   0  0  0  0  0  0  0  0  0  0  0  0
  195.2596  149.5400   -0.7201 H   0  0  0  0  0  0  0  0  0  0  0  0
  194.6791  152.5212   -1.2414 H   0  0  0  0  0  0  0  0  0  0  0  0
  191.4765  150.8484   -1.4015 H   0  0  0  0  0  0  0  0  0  0  0  0
  191.9634  152.4320    0.3656 H   0  0  0  0  0  0  0  0  0  0  0  0
  196.5811  151.9931   -2.5854 H   0  0  0  0  0  0  0  0  0  0  0  0
  195.1699  151.8912   -3.6425 H   0  0  0  0  0  0  0  0  0  0  0  0
  196.7380  149.8450   -2.5302 H   0  0  0  0  0  0  0  0  0  0  0  0
  193.7367  149.6252    2.2615 H   0  0  0  0  0  0  0  0  0  0  0  0
  196.9742  153.5639   -0.5169 H   0  0  0  0  0  0  0  0  0  0  0  0
  197.8891  153.9567   -2.0132 H   0  0  0  0  0  0  0  0  0  0  0  0
  198.0144  154.9870   -0.5791 H   0  0  0  0  0  0  0  0  0  0  0  0
  198.8965  151.3881    1.2172 H   0  0  0  0  0  0  0  0  0  0  0  0
  199.8717  148.9904   -0.3662 H   0  0  0  0  0  0  0  0  0  0  0  0
  199.9186  148.8674    2.2596 H   0  0  0  0  0  0  0  0  0  0  0  0
  196.4421  149.5393    1.5491 H   0  0  0  0  0  0  0  0  0  0  0  0
  197.1905  148.4454   -0.6047 H   0  0  0  0  0  0  0  0  0  0  0  0
  199.9264  147.1412    0.4566 H   0  0  0  0  0  0  0  0  0  0  0  0
  198.3780  147.1163    1.3565 H   0  0  0  0  0  0  0  0  0  0  0  0
  199.3540  145.6311    1.2122 H   0  0  0  0  0  0  0  0  0  0  0  0
  200.1031  148.0154    2.5673 H   0  0  0  0  0  0  0  0  0  0  0  0
  200.8267  151.2853   -0.7993 H   0  0  0  0  0  0  0  0  0  0  0  0
  206.2572  150.9800    1.9516 H   0  0  0  0  0  0  0  0  0  0  0  0
  205.2672  152.2981    2.5461 H   0  0  0  0  0  0  0  0  0  0  0  0
  203.3170  151.4280    1.2267 H   0  0  0  0  0  0  0  0  0  0  0  0
  205.3906  149.3511    0.5266 H   0  0  0  0  0  0  0  0  0  0  0  0
  202.6439  148.3471    0.0073 H   0  0  0  0  0  0  0  0  0  0  0  0
  202.2332  147.3702    2.1710 H   0  0  0  0  0  0  0  0  0  0  0  0
  202.3226  149.2163    3.8465 H   0  0  0  0  0  0  0  0  0  0  0  0
  204.7027  148.2841    3.1568 H   0  0  0  0  0  0  0  0  0  0  0  0
  203.1378  150.3867   -0.8472 H   0  0  0  0  0  0  0  0  0  0  0  0
  201.2704  144.1167    2.2190 H   0  0  0  0  0  0  0  0  0  0  0  0
  200.5880  143.0414    0.9746 H   0  0  0  0  0  0  0  0  0  0  0  0
  201.8176  144.4251   -0.7795 H   0  0  0  0  0  0  0  0  0  0  0  0
  203.5421  143.0837    1.3978 H   0  0  0  0  0  0  0  0  0  0  0  0
  204.2343  143.6009   -1.5272 H   0  0  0  0  0  0  0  0  0  0  0  0
  205.7874  145.3753   -0.7142 H   0  0  0  0  0  0  0  0  0  0  0  0
  203.4573  146.1799   -1.2155 H   0  0  0  0  0  0  0  0  0  0  0  0
  205.0872  145.8484    1.7057 H   0  0  0  0  0  0  0  0  0  0  0  0
  202.4940  142.0836   -1.0640 H   0  0  0  0  0  0  0  0  0  0  0  0
  200.3420  145.8674    1.0303 H   0  0  0  0  0  0  0  0  0  0  0  0
  209.8139  144.7612    0.1054 H   0  0  0  0  0  0  0  0  0  0  0  0
  209.4922  144.5255    1.8377 H   0  0  0  0  0  0  0  0  0  0  0  0
  207.3470  143.3779    1.2672 H   0  0  0  0  0  0  0  0  0  0  0  0
  209.7781  142.1720   -0.1730 H   0  0  0  0  0  0  0  0  0  0  0  0
  207.2962  140.7700    0.9501 H   0  0  0  0  0  0  0  0  0  0  0  0
  206.5660  140.4534   -1.3753 H   0  0  0  0  0  0  0  0  0  0  0  0
  206.2507  142.8635   -2.1463 H   0  0  0  0  0  0  0  0  0  0  0  0
  208.6077  142.1045   -2.3616 H   0  0  0  0  0  0  0  0  0  0  0  0
  209.0731  139.7239   -0.9227 H   0  0  0  0  0  0  0  0  0  0  0  0
  209.7383  140.9037    1.8196 H   0  0  0  0  0  0  0  0  0  0  0  0
  207.3511  145.6161    1.1261 H   0  0  0  0  0  0  0  0  0  0  0  0
  209.7474  154.0612    1.8289 H   0  0  0  0  0  0  0  0  0  0  0  0
  210.8923  154.2297    0.5018 H   0  0  0  0  0  0  0  0  0  0  0  0
  209.3862  152.4394   -0.7338 H   0  0  0  0  0  0  0  0  0  0  0  0
  209.2581  154.5188   -1.7158 H   0  0  0  0  0  0  0  0  0  0  0  0
  206.9990  155.0094   -2.1743 H   0  0  0  0  0  0  0  0  0  0  0  0
  207.5243  152.5168   -2.1603 H   0  0  0  0  0  0  0  0  0  0  0  0
  206.9701  151.1115   -0.3204 H   0  0  0  0  0  0  0  0  0  0  0  0
  204.8857  152.9237   -1.3751 H   0  0  0  0  0  0  0  0  0  0  0  0
  208.0504  155.7716    0.4696 H   0  0  0  0  0  0  0  0  0  0  0  0
  201.1637  154.2211   -2.2169 H   0  0  0  0  0  0  0  0  0  0  0  0
  202.1912  153.0240   -1.3726 H   0  0  0  0  0  0  0  0  0  0  0  0
  203.0417  155.8837   -2.0196 H   0  0  0  0  0  0  0  0  0  0  0  0
  202.2648  154.8030    0.7700 H   0  0  0  0  0  0  0  0  0  0  0  0
  203.0837  157.5911   -0.2079 H   0  0  0  0  0  0  0  0  0  0  0  0
  205.2082  157.2134    0.9624 H   0  0  0  0  0  0  0  0  0  0  0  0
  205.2685  156.3428   -1.3298 H   0  0  0  0  0  0  0  0  0  0  0  0
  203.9688  155.8853    2.5180 H   0  0  0  0  0  0  0  0  0  0  0  0
  201.6079  157.1941    1.6089 H   0  0  0  0  0  0  0  0  0  0  0  0
  200.3962  155.2602   -0.0737 H   0  0  0  0  0  0  0  0  0  0  0  0
  203.7228  153.2579   -2.9791 H   0  0  0  0  0  0  0  0  0  0  0  0
  214.7822  154.2406    1.7241 H   0  0  0  0  0  0  0  0  0  0  0  0
  213.0677  153.9099    2.0493 H   0  0  0  0  0  0  0  0  0  0  0  0
  214.4340  153.1806   -0.5754 H   0  0  0  0  0  0  0  0  0  0  0  0
  214.8358  151.8503    1.9893 H   0  0  0  0  0  0  0  0  0  0  0  0
  213.7883  150.0197   -0.2497 H   0  0  0  0  0  0  0  0  0  0  0  0
  211.8122  149.6635    1.3237 H   0  0  0  0  0  0  0  0  0  0  0  0
  211.0399  151.2224   -0.1687 H   0  0  0  0  0  0  0  0  0  0  0  0
  211.7317  151.4358    2.9511 H   0  0  0  0  0  0  0  0  0  0  0  0
  214.1827  149.4617    2.4734 H   0  0  0  0  0  0  0  0  0  0  0  0
  216.2046  150.5896    0.6170 H   0  0  0  0  0  0  0  0  0  0  0  0
  212.7518  154.9941   -0.0850 H   0  0  0  0  0  0  0  0  0  0  0  0
  1  2  1  0
  1 96  1  6
  1 97  1  0
  1 98  1  0
  2  3  2  0
  2  4  1  0
  5  4  1  0
  5  6  1  0
  5 99  1  6
  6  7  1  0
  6 14  1  0
  6100  1  1
  7  8  1  0
  7 89  1  0
  7101  1  6
  8  9  1  0
  8 12  1  0
  8102  1  1
  9 10  1  0
 10 11  1  0
 10  5  1  0
 10103  1  6
 11104  1  0
 12 13  1  0
 12105  1  1
 12106  1  0
 13107  1  0
 14108  1  0
 15 16  1  0
 15109  1  1
 15110  1  0
 15111  1  0
 16 17  2  0
 16 18  1  0
 19 18  1  0
 19 20  1  0
 19112  1  1
 20 21  1  0
 20 27  1  0
 20113  1  6
 21 90  1  0
 21114  1  0
 23 22  1  1
 22115  1  0
 23 24  1  0
 23 19  1  0
 23 89  1  0
 24116  1  0
 25 26  1  0
 25117  1  6
 25118  1  0
 25119  1  0
 26120  1  0
 27121  1  0
 28122  1  1
 28123  1  0
 29 28  1  0
 29 30  1  0
 29124  1  6
 30 31  1  0
 30 36  1  0
 30125  1  6
 31 32  1  0
 31 91  1  0
 31126  1  1
 32 33  1  0
 32 35  1  0
 32127  1  6
 33 34  1  0
 33 90  1  0
 33128  1  1
 34 29  1  0
 35129  1  0
 36130  1  0
 37 46  1  0
 37131  1  1
 37132  1  0
 38 37  1  0
 38 39  1  0
 38133  1  6
 39 40  1  0
 39 45  1  0
 39134  1  1
 40 41  1  0
 40 92  1  0
 40135  1  1
 41 42  1  0
 41 44  1  0
 41136  1  6
 42 43  1  0
 42 91  1  0
 42137  1  6
 43 38  1  0
 44138  1  0
 45139  1  0
 46140  1  0
 47 57  1  0
 47141  1  6
 47142  1  0
 48 47  1  0
 48 49  1  0
 48143  1  1
 49 50  1  0
 49 56  1  0
 49144  1  6
 50 51  1  0
 50 55  1  0
 50145  1  1
 51 52  1  0
 51 54  1  0
 51146  1  6
 52 53  1  0
 52 92  1  0
 52147  1  1
 53 48  1  0
 54148  1  0
 55149  1  0
 56150  1  0
 57151  1  0
 58152  1  1
 58153  1  0
 59 58  1  0
 59 60  1  0
 59154  1  6
 60 61  1  0
 60 66  1  0
 60155  1  1
 61 62  1  0
 61 94  1  0
 61156  1  1
 62 63  1  0
 62 65  1  0
 62157  1  6
 63 64  1  0
 63 93  1  0
 63158  1  1
 64 59  1  0
 65159  1  0
 66160  1  0
 67 77  1  0
 67161  1  6
 67162  1  0
 68 67  1  0
 68 69  1  0
 68163  1  6
 69 70  1  0
 69 76  1  0
 69164  1  1
 70 71  1  0
 70 75  1  0
 70165  1  6
 71 72  1  0
 71 74  1  0
 71166  1  1
 72 73  1  0
 72 94  1  0
 72167  1  6
 73 68  1  0
 74168  1  0
 75169  1  0
 76170  1  0
 77171  1  0
 78 88  1  0
 78172  1  1
 78173  1  0
 79 78  1  0
 79 80  1  0
 79174  1  6
 80 81  1  0
 80 87  1  0
 80175  1  1
 81 82  1  0
 81 86  1  0
 81176  1  6
 82 83  1  0
 82 85  1  0
 82177  1  1
 83 84  1  0
 83 95  1  0
 83178  1  6
 84 79  1  0
 85179  1  0
 86180  1  0
 87181  1  0
 88182  1  0
 93 28  1  0
 95 58  1  0
M  RAD  3   4   2  18   2  21   2
M  END
>  <step>  (1) 
200

>  <phase>  (1) 
minimization

>  <energy>  (1) 
627.1885

$$$$
chair_1C4_beta_rank1_Q0.795_theta174.7_phi45.0_E15.2
     RDKit          3D

182187  0  0  0  0  0  0  0  0999 V2000
  189.8047  150.3926    2.5291 C   0  0  2  0  0  0  0  0  0  0  0  0
  190.6810  150.0047    1.3645 C   0  0  0  0  0  0  0  0  0  0  0  0
  190.2591  149.2762    0.4702 O   0  0  0  0  0  0  0  0  0  0  0  0
  191.8935  150.5489    1.4885 N   0  0  0  0  0  2  0  0  0  0  0  0
  192.8047  150.2725    0.3366 C   0  0  2  0  0  0  0  0  0  0  0  0
  194.2381  150.6545    0.7655 C   0  0  2  0  0  0  0  0  0  0  0  0
  195.2227  150.5464   -0.3989 C   0  0  1  0  0  0  0  0  0  0  0  0
  194.6979  151.3793   -1.5738 C   0  0  2  0  0  0  0  0  0  0  0  0
  193.3863  150.9469   -1.9631 O   0  0  0  0  0  0  0  0  0  0  0  0
  192.4130  151.0743   -0.9297 C   0  0  2  0  0  0  0  0  0  0  0  0
  192.2146  152.4437   -0.5770 O   0  0  0  0  0  0  0  0  0  0  0  0
  195.6169  151.3112   -2.8086 C   0  0  2  0  0  0  0  0  0  0  0  0
  196.0106  149.9813   -3.1589 O   0  0  0  0  0  0  0  0  0  0  0  0
  194.6455  149.7607    1.8259 O   0  0  0  0  0  0  0  0  0  0  0  0
  197.9388  153.9172   -1.1748 C   0  0  2  0  0  0  0  0  0  0  0  0
  199.0674  153.1338   -0.5574 C   0  0  0  0  0  0  0  0  0  0  0  0
  199.8847  153.6733    0.1839 O   0  0  0  0  0  0  0  0  0  0  0  0
  199.0846  151.8657   -0.9669 N   0  0  0  0  0  2  0  0  0  0  0  0
  198.9176  150.8969    0.1884 C   0  0  2  0  0  0  0  0  0  0  0  0
  200.1214  149.9033    0.2104 C   0  0  2  0  0  0  0  0  0  0  0  0
  200.5597  149.4873    1.5836 C   0  0  0  0  0  3  0  0  0  0  0  0
  197.3829  149.3360    1.2729 O   0  0  0  0  0  0  0  0  0  0  0  0
  197.5526  150.1236    0.1140 C   0  0  2  0  0  0  0  0  0  0  0  0
  197.5603  149.2243   -0.9787 O   0  0  0  0  0  0  0  0  0  0  0  0
  199.3948  146.7182    1.3125 C   0  0  2  0  0  0  0  0  0  0  0  0
  200.0830  147.0452    2.5057 O   0  0  0  0  0  0  0  0  0  0  0  0
  201.2729  150.5004   -0.4326 O   0  0  0  0  0  0  0  0  0  0  0  0
  205.4089  151.6646    1.7027 C   0  0  2  0  0  0  0  0  0  0  0  0
  204.1307  150.8066    1.5612 C   0  0  1  0  0  0  0  0  0  0  0  0
  204.3528  149.6757    0.5291 C   0  0  1  0  0  0  0  0  0  0  0  0
  203.5203  148.3832    0.7143 C   0  0  2  0  0  0  0  0  0  0  0  0
  203.0563  148.1654    2.1645 C   0  0  2  0  0  0  0  0  0  0  0  0
  202.5998  149.4888    2.8087 C   0  0  1  0  0  0  0  0  0  0  0  0
  203.7982  150.3000    2.8666 O   0  0  0  0  0  0  0  0  0  0  0  0
  204.1448  147.5992    2.9457 O   0  0  0  0  0  0  0  0  0  0  0  0
  204.1288  150.1695   -0.8042 O   0  0  0  0  0  0  0  0  0  0  0  0
  200.9931  144.0989    1.1780 C   0  0  2  0  0  0  0  0  0  0  0  0
  202.1837  144.4059    0.2627 C   0  0  2  0  0  0  0  0  0  0  0  0
  203.2384  143.2907    0.3405 C   0  0  2  0  0  0  0  0  0  0  0  0
  204.4882  143.6787   -0.4738 C   0  0  1  0  0  0  0  0  0  0  0  0
  204.9609  145.0829   -0.0707 C   0  0  1  0  0  0  0  0  0  0  0  0
  203.8018  146.1056   -0.1538 C   0  0  1  0  0  0  0  0  0  0  0  0
  202.7209  145.6733    0.6647 O   0  0  0  0  0  0  0  0  0  0  0  0
  205.4798  145.0667    1.2857 O   0  0  0  0  0  0  0  0  0  0  0  0
  202.6965  142.0521   -0.1475 O   0  0  0  0  0  0  0  0  0  0  0  0
  199.9557  145.0521    0.9532 O   0  0  0  0  0  0  0  0  0  0  0  0
  209.0144  144.5862    0.9235 C   0  0  2  0  0  0  0  0  0  0  0  0
  208.1197  143.4009    0.5360 C   0  0  2  0  0  0  0  0  0  0  0  0
  208.8986  142.0835    0.5182 C   0  0  2  0  0  0  0  0  0  0  0  0
  207.9614  140.9536    0.0719 C   0  0  1  0  0  0  0  0  0  0  0  0
  207.2575  141.3038   -1.2442 C   0  0  1  0  0  0  0  0  0  0  0  0
  206.5819  142.6900   -1.1561 C   0  0  2  0  0  0  0  0  0  0  0  0
  207.5599  143.6586   -0.7691 O   0  0  0  0  0  0  0  0  0  0  0  0
  208.2512  141.2761   -2.2950 O   0  0  0  0  0  0  0  0  0  0  0  0
  208.7501  139.7575   -0.0849 O   0  0  0  0  0  0  0  0  0  0  0  0
  209.4457  141.7688    1.8006 O   0  0  0  0  0  0  0  0  0  0  0  0
  208.2780  145.8114    0.9624 O   0  0  0  0  0  0  0  0  0  0  0  0
  210.1899  153.6023    0.9323 C   0  0  2  0  0  0  0  0  0  0  0  0
  209.0544  153.2528   -0.0456 C   0  0  2  0  0  0  0  0  0  0  0  0
  208.6144  154.5149   -0.8452 C   0  0  1  0  0  0  0  0  0  0  0  0
  207.1314  154.4643   -1.2660 C   0  0  1  0  0  0  0  0  0  0  0  0
  206.7919  152.9782   -1.4801 C   0  0  1  0  0  0  0  0  0  0  0  0
  206.8729  152.2243   -0.1260 C   0  0  1  0  0  0  0  0  0  0  0  0
  207.9699  152.6659    0.6907 O   0  0  0  0  0  0  0  0  0  0  0  0
  205.5337  152.7911   -2.1243 O   0  0  0  0  0  0  0  0  0  0  0  0
  208.8474  155.7268   -0.1113 O   0  0  0  0  0  0  0  0  0  0  0  0
  202.2040  153.9581   -2.0266 C   0  0  2  0  0  0  0  0  0  0  0  0
  202.9448  155.0870   -1.3091 C   0  0  1  0  0  0  0  0  0  0  0  0
  202.2740  155.5684   -0.0223 C   0  0  1  0  0  0  0  0  0  0  0  0
  203.1035  156.7366    0.5281 C   0  0  2  0  0  0  0  0  0  0  0  0
  204.5567  156.3210    0.7547 C   0  0  2  0  0  0  0  0  0  0  0  0
  205.1263  155.6315   -0.5134 C   0  0  2  0  0  0  0  0  0  0  0  0
  204.2625  154.6103   -0.9915 O   0  0  0  0  0  0  0  0  0  0  0  0
  204.6111  155.4627    1.9114 O   0  0  0  0  0  0  0  0  0  0  0  0
  202.5370  157.1915    1.7709 O   0  0  0  0  0  0  0  0  0  0  0  0
  200.9486  156.0563   -0.2295 O   0  0  0  0  0  0  0  0  0  0  0  0
  202.8851  153.6725   -3.2611 O   0  0  0  0  0  0  0  0  0  0  0  0
  213.8686  153.9180    1.4292 C   0  0  2  0  0  0  0  0  0  0  0  0
  213.9139  152.7984    0.3774 C   0  0  1  0  0  0  0  0  0  0  0  0
  214.6207  151.5346    0.8998 C   0  0  1  0  0  0  0  0  0  0  0  0
  213.7320  150.2938    0.8004 C   0  0  2  0  0  0  0  0  0  0  0  0
  212.3686  150.6117    1.3861 C   0  0  2  0  0  0  0  0  0  0  0  0
  211.6973  151.7456    0.5802 C   0  0  2  0  0  0  0  0  0  0  0  0
  212.6035  152.5601   -0.1684 O   0  0  0  0  0  0  0  0  0  0  0  0
  212.5693  150.9980    2.7667 O   0  0  0  0  0  0  0  0  0  0  0  0
  214.3658  149.2358    1.5417 O   0  0  0  0  0  0  0  0  0  0  0  0
  215.8223  151.2864    0.1483 O   0  0  0  0  0  0  0  0  0  0  0  0
  213.5501  155.1672    0.8100 O   0  0  0  0  0  0  0  0  0  0  0  0
  196.4913  151.0614    0.0217 O   0  0  0  0  0  0  0  0  0  0  0  0
  201.5483  150.2141    2.1842 O   0  0  0  0  0  0  0  0  0  0  0  0
  204.3989  147.3093    0.3163 O   0  0  0  0  0  0  0  0  0  0  0  0
  205.4742  142.6432   -0.2714 O   0  0  0  0  0  0  0  0  0  0  0  0
  205.6278  152.4444    0.5366 O   0  0  0  0  0  0  0  0  0  0  0  0
  206.4169  155.1090   -0.1927 O   0  0  0  0  0  0  0  0  0  0  0  0
  210.8811  152.4806    1.4945 O   0  0  0  0  0  0  0  0  0  0  0  0
  188.7747  150.0833    2.3230 H   0  0  0  0  0  0  0  0  0  0  0  0
  189.8049  151.4776    2.6735 H   0  0  0  0  0  0  0  0  0  0  0  0
  190.1431  149.8897    3.4395 H   0  0  0  0  0  0  0  0  0  0  0  0
  192.8227  149.2018    0.0854 H   0  0  0  0  0  0  0  0  0  0  0  0
  194.2739  151.6654    1.1928 H   0  0  0  0  0  0  0  0  0  0  0  0
  195.2762  149.4879   -0.6800 H   0  0  0  0  0  0  0  0  0  0  0  0
  194.6423  152.4396   -1.2930 H   0  0  0  0  0  0  0  0  0  0  0  0
  191.4644  150.7113   -1.3370 H   0  0  0  0  0  0  0  0  0  0  0  0
  191.9535  152.3638    0.3643 H   0  0  0  0  0  0  0  0  0  0  0  0
  196.5285  151.8929   -2.6519 H   0  0  0  0  0  0  0  0  0  0  0  0
  195.1006  151.7293   -3.6788 H   0  0  0  0  0  0  0  0  0  0  0  0
  196.7202  149.7497   -2.5178 H   0  0  0  0  0  0  0  0  0  0  0  0
  193.8047  149.6571    2.3238 H   0  0  0  0  0  0  0  0  0  0  0  0
  196.9757  153.5587   -0.8033 H   0  0  0  0  0  0  0  0  0  0  0  0
  197.9771  153.8609   -2.2661 H   0  0  0  0  0  0  0  0  0  0  0  0
  198.0351  154.9697   -0.8871 H   0  0  0  0  0  0  0  0  0  0  0  0
  198.9130  151.4384    1.1474 H   0  0  0  0  0  0  0  0  0  0  0  0
  199.9037  149.0006   -0.3682 H   0  0  0  0  0  0  0  0  0  0  0  0
  199.9294  148.9312    2.2610 H   0  0  0  0  0  0  0  0  0  0  0  0
  196.4797  149.5819    1.5710 H   0  0  0  0  0  0  0  0  0  0  0  0
  197.2199  148.4213   -0.5522 H   0  0  0  0  0  0  0  0  0  0  0  0
  199.9264  147.1412    0.4566 H   0  0  0  0  0  0  0  0  0  0  0  0
  198.3780  147.1163    1.3565 H   0  0  0  0  0  0  0  0  0  0  0  0
  199.3540  145.6311    1.2122 H   0  0  0  0  0  0  0  0  0  0  0  0
  200.1031  148.0154    2.5673 H   0  0  0  0  0  0  0  0  0  0  0  0
  200.8402  151.2841   -0.8539 H   0  0  0  0  0  0  0  0  0  0  0  0
  206.2727  151.0378    1.9583 H   0  0  0  0  0  0  0  0  0  0  0  0
  205.2801  152.3598    2.5404 H   0  0  0  0  0  0  0  0  0  0  0  0
  203.3362  151.4803    1.2152 H   0  0  0  0  0  0  0  0  0  0  0  0
  205.4122  149.3922    0.5575 H   0  0  0  0  0  0  0  0  0  0  0  0
  202.6662  148.3922    0.0312 H   0  0  0  0  0  0  0  0  0  0  0  0
  202.2446  147.4356    2.1983 H   0  0  0  0  0  0  0  0  0  0  0  0
  202.3175  149.3014    3.8505 H   0  0  0  0  0  0  0  0  0  0  0  0
  204.7072  148.3614    3.1904 H   0  0  0  0  0  0  0  0  0  0  0  0
  203.1719  150.4136   -0.8470 H   0  0  0  0  0  0  0  0  0  0  0  0
  201.2761  144.1604    2.2337 H   0  0  0  0  0  0  0  0  0  0  0  0
  200.5754  143.1076    0.9806 H   0  0  0  0  0  0  0  0  0  0  0  0
  201.8048  144.5052   -0.7635 H   0  0  0  0  0  0  0  0  0  0  0  0
  203.5309  143.1151    1.3830 H   0  0  0  0  0  0  0  0  0  0  0  0
  204.2144  143.6731   -1.5374 H   0  0  0  0  0  0  0  0  0  0  0  0
  205.7878  145.4197   -0.7032 H   0  0  0  0  0  0  0  0  0  0  0  0
  203.4616  146.2493   -1.1857 H   0  0  0  0  0  0  0  0  0  0  0  0
  205.1069  145.8723    1.7182 H   0  0  0  0  0  0  0  0  0  0  0  0
  202.4595  142.1616   -1.0839 H   0  0  0  0  0  0  0  0  0  0  0  0
  200.3550  145.9346    1.0721 H   0  0  0  0  0  0  0  0  0  0  0  0
  209.8161  144.7222    0.1905 H   0  0  0  0  0  0  0  0  0  0  0  0
  209.4639  144.4382    1.9097 H   0  0  0  0  0  0  0  0  0  0  0  0
  207.3130  143.3434    1.2757 H   0  0  0  0  0  0  0  0  0  0  0  0
  209.7447  142.1514   -0.1770 H   0  0  0  0  0  0  0  0  0  0  0  0
  207.2286  140.7456    0.8603 H   0  0  0  0  0  0  0  0  0  0  0  0
  206.5254  140.5250   -1.4825 H   0  0  0  0  0  0  0  0  0  0  0  0
  206.2462  142.9644   -2.1631 H   0  0  0  0  0  0  0  0  0  0  0  0
  208.5984  142.1865   -2.3814 H   0  0  0  0  0  0  0  0  0  0  0  0
  209.0173  139.7465   -1.0275 H   0  0  0  0  0  0  0  0  0  0  0  0
  209.6583  140.8144    1.7662 H   0  0  0  0  0  0  0  0  0  0  0  0
  207.3482  145.5859    1.1799 H   0  0  0  0  0  0  0  0  0  0  0  0
  209.7713  154.1413    1.7898 H   0  0  0  0  0  0  0  0  0  0  0  0
  210.9180  154.2629    0.4573 H   0  0  0  0  0  0  0  0  0  0  0  0
  209.3963  152.4906   -0.7540 H   0  0  0  0  0  0  0  0  0  0  0  0
  209.2511  154.5709   -1.7363 H   0  0  0  0  0  0  0  0  0  0  0  0
  206.9840  155.0500   -2.1814 H   0  0  0  0  0  0  0  0  0  0  0  0
  207.5353  152.5578   -2.1692 H   0  0  0  0  0  0  0  0  0  0  0  0
  206.9828  151.1516   -0.3227 H   0  0  0  0  0  0  0  0  0  0  0  0
  204.8928  152.9448   -1.3864 H   0  0  0  0  0  0  0  0  0  0  0  0
  208.0483  155.8155    0.4565 H   0  0  0  0  0  0  0  0  0  0  0  0
  201.1804  154.2456   -2.2783 H   0  0  0  0  0  0  0  0  0  0  0  0
  202.1976  153.0400   -1.4330 H   0  0  0  0  0  0  0  0  0  0  0  0
  203.0402  155.9145   -2.0255 H   0  0  0  0  0  0  0  0  0  0  0  0
  202.2344  154.7720    0.7315 H   0  0  0  0  0  0  0  0  0  0  0  0
  203.0575  157.5858   -0.1647 H   0  0  0  0  0  0  0  0  0  0  0  0
  205.1723  157.1891    1.0152 H   0  0  0  0  0  0  0  0  0  0  0  0
  205.2486  156.3834   -1.3036 H   0  0  0  0  0  0  0  0  0  0  0  0
  203.9288  155.8104    2.5203 H   0  0  0  0  0  0  0  0  0  0  0  0
  201.5674  157.1336    1.6267 H   0  0  0  0  0  0  0  0  0  0  0  0
  200.3753  155.2526   -0.1250 H   0  0  0  0  0  0  0  0  0  0  0  0
  203.7566  153.3031   -3.0101 H   0  0  0  0  0  0  0  0  0  0  0  0
  214.8419  154.0430    1.9125 H   0  0  0  0  0  0  0  0  0  0  0  0
  213.1166  153.7296    2.1993 H   0  0  0  0  0  0  0  0  0  0  0  0
  214.4886  153.1923   -0.4707 H   0  0  0  0  0  0  0  0  0  0  0  0
  214.9646  151.6822    1.9306 H   0  0  0  0  0  0  0  0  0  0  0  0
  213.6532  149.9496   -0.2371 H   0  0  0  0  0  0  0  0  0  0  0  0
  211.7234  149.7276    1.4221 H   0  0  0  0  0  0  0  0  0  0  0  0
  211.0520  151.2681   -0.1644 H   0  0  0  0  0  0  0  0  0  0  0  0
  211.7697  151.5256    2.9899 H   0  0  0  0  0  0  0  0  0  0  0  0
  214.1139  149.3895    2.4765 H   0  0  0  0  0  0  0  0  0  0  0  0
  216.1166  150.3944    0.4207 H   0  0  0  0  0  0  0  0  0  0  0  0
  212.8479  154.9893    0.1585 H   0  0  0  0  0  0  0  0  0  0  0  0
  1  2  1  0
  1 96  1  6
  1 97  1  0
  1 98  1  0
  2  3  2  0
  2  4  1  0
  5  4  1  0
  5  6  1  0
  5 99  1  6
  6  7  1  0
  6 14  1  0
  6100  1  1
  7  8  1  0
  7 89  1  0
  7101  1  6
  8  9  1  0
  8 12  1  0
  8102  1  1
  9 10  1  0
 10 11  1  0
 10  5  1  0
 10103  1  6
 11104  1  0
 12 13  1  0
 12105  1  1
 12106  1  0
 13107  1  0
 14108  1  0
 15 16  1  0
 15109  1  1
 15110  1  0
 15111  1  0
 16 17  2  0
 16 18  1  0
 19 18  1  0
 19 20  1  0
 19112  1  1
 20 21  1  0
 20 27  1  0
 20113  1  6
 21 90  1  0
 21114  1  0
 23 22  1  1
 22115  1  0
 23 24  1  0
 23 19  1  0
 23 89  1  0
 24116  1  0
 25 26  1  0
 25117  1  6
 25118  1  0
 25119  1  0
 26120  1  0
 27121  1  0
 28122  1  1
 28123  1  0
 29 28  1  0
 29 30  1  0
 29124  1  6
 30 31  1  0
 30 36  1  0
 30125  1  6
 31 32  1  0
 31 91  1  0
 31126  1  1
 32 33  1  0
 32 35  1  0
 32127  1  6
 33 34  1  0
 33 90  1  0
 33128  1  1
 34 29  1  0
 35129  1  0
 36130  1  0
 37 46  1  0
 37131  1  1
 37132  1  0
 38 37  1  0
 38 39  1  0
 38133  1  6
 39 40  1  0
 39 45  1  0
 39134  1  1
 40 41  1  0
 40 92  1  0
 40135  1  1
 41 42  1  0
 41 44  1  0
 41136  1  6
 42 43  1  0
 42 91  1  0
 42137  1  6
 43 38  1  0
 44138  1  0
 45139  1  0
 46140  1  0
 47 57  1  0
 47141  1  6
 47142  1  0
 48 47  1  0
 48 49  1  0
 48143  1  1
 49 50  1  0
 49 56  1  0
 49144  1  6
 50 51  1  0
 50 55  1  0
 50145  1  1
 51 52  1  0
 51 54  1  0
 51146  1  6
 52 53  1  0
 52 92  1  0
 52147  1  1
 53 48  1  0
 54148  1  0
 55149  1  0
 56150  1  0
 57151  1  0
 58152  1  1
 58153  1  0
 59 58  1  0
 59 60  1  0
 59154  1  6
 60 61  1  0
 60 66  1  0
 60155  1  1
 61 62  1  0
 61 94  1  0
 61156  1  1
 62 63  1  0
 62 65  1  0
 62157  1  6
 63 64  1  0
 63 93  1  0
 63158  1  1
 64 59  1  0
 65159  1  0
 66160  1  0
 67 77  1  0
 67161  1  6
 67162  1  0
 68 67  1  0
 68 69  1  0
 68163  1  6
 69 70  1  0
 69 76  1  0
 69164  1  1
 70 71  1  0
 70 75  1  0
 70165  1  6
 71 72  1  0
 71 74  1  0
 71166  1  1
 72 73  1  0
 72 94  1  0
 72167  1  6
 73 68  1  0
 74168  1  0
 75169  1  0
 76170  1  0
 77171  1  0
 78 88  1  0
 78172  1  1
 78173  1  0
 79 78  1  0
 79 80  1  0
 79174  1  6
 80 81  1  0
 80 87  1  0
 80175  1  1
 81 82  1  0
 81 86  1  0
 81176  1  6
 82 83  1  0
 82 85  1  0
 82177  1  1
 83 84  1  0
 83 95  1  0
 83178  1  6
 84 79  1  0
 85179  1  0
 86180  1  0
 87181  1  0
 88182  1  0
 93 28  1  0
 95 58  1  0
M  RAD  3   4   2  18   2  21   2
M  END
>  <step>  (1) 
250

>  <phase>  (1) 
minimization

>  <energy>  (1) 
624.8958

$$$$
chair_1C4_beta_rank1_Q0.795_theta174.7_phi45.0_E15.2
     RDKit          3D

182187  0  0  0  0  0  0  0  0999 V2000
  189.8626  150.3651    2.6197 C   0  0  2  0  0  0  0  0  0  0  0  0
  190.7259  149.9610    1.4503 C   0  0  0  0  0  0  0  0  0  0  0  0
  190.3029  149.2029    0.5835 O   0  0  0  0  0  0  0  0  0  0  0  0
  191.9298  150.5323    1.5385 N   0  0  0  0  0  2  0  0  0  0  0  0
  192.8296  150.2337    0.3831 C   0  0  2  0  0  0  0  0  0  0  0  0
  194.2631  150.6474    0.7805 C   0  0  2  0  0  0  0  0  0  0  0  0
  195.2330  150.5141   -0.3934 C   0  0  1  0  0  0  0  0  0  0  0  0
  194.6828  151.3050   -1.5855 C   0  0  2  0  0  0  0  0  0  0  0  0
  193.3714  150.8461   -1.9438 O   0  0  0  0  0  0  0  0  0  0  0  0
  192.4100  150.9915   -0.9015 C   0  0  2  0  0  0  0  0  0  0  0  0
  192.1979  152.3682   -0.5869 O   0  0  0  0  0  0  0  0  0  0  0  0
  195.5865  151.2096   -2.8304 C   0  0  2  0  0  0  0  0  0  0  0  0
  195.9918  149.8737   -3.1443 O   0  0  0  0  0  0  0  0  0  0  0  0
  194.6950  149.7931    1.8632 O   0  0  0  0  0  0  0  0  0  0  0  0
  197.9651  153.8807   -1.3712 C   0  0  2  0  0  0  0  0  0  0  0  0
  199.0616  153.1177   -0.6750 C   0  0  0  0  0  0  0  0  0  0  0  0
  199.8430  153.6820    0.0866 O   0  0  0  0  0  0  0  0  0  0  0  0
  199.0902  151.8367   -1.0383 N   0  0  0  0  0  2  0  0  0  0  0  0
  198.9325  150.9060    0.1488 C   0  0  2  0  0  0  0  0  0  0  0  0
  200.1408  149.9201    0.1963 C   0  0  2  0  0  0  0  0  0  0  0  0
  200.5710  149.5270    1.5787 C   0  0  0  0  0  3  0  0  0  0  0  0
  197.4136  149.3711    1.2894 O   0  0  0  0  0  0  0  0  0  0  0  0
  197.5708  150.1250    0.1066 C   0  0  2  0  0  0  0  0  0  0  0  0
  197.5765  149.1926   -0.9593 O   0  0  0  0  0  0  0  0  0  0  0  0
  199.3948  146.7182    1.3125 C   0  0  2  0  0  0  0  0  0  0  0  0
  200.0830  147.0452    2.5057 O   0  0  0  0  0  0  0  0  0  0  0  0
  201.2938  150.5148   -0.4474 O   0  0  0  0  0  0  0  0  0  0  0  0
  205.4191  151.7076    1.7037 C   0  0  2  0  0  0  0  0  0  0  0  0
  204.1428  150.8475    1.5645 C   0  0  1  0  0  0  0  0  0  0  0  0
  204.3734  149.7048    0.5474 C   0  0  1  0  0  0  0  0  0  0  0  0
  203.5364  148.4172    0.7397 C   0  0  2  0  0  0  0  0  0  0  0  0
  203.0639  148.2136    2.1890 C   0  0  2  0  0  0  0  0  0  0  0  0
  202.6030  149.5436    2.8153 C   0  0  1  0  0  0  0  0  0  0  0  0
  203.8009  150.3556    2.8733 O   0  0  0  0  0  0  0  0  0  0  0  0
  204.1464  147.6561    2.9840 O   0  0  0  0  0  0  0  0  0  0  0  0
  204.1625  150.1837   -0.7937 O   0  0  0  0  0  0  0  0  0  0  0  0
  200.9897  144.1392    1.1902 C   0  0  2  0  0  0  0  0  0  0  0  0
  202.1782  144.4501    0.2726 C   0  0  2  0  0  0  0  0  0  0  0  0
  203.2252  143.3260    0.3305 C   0  0  2  0  0  0  0  0  0  0  0  0
  204.4755  143.7164   -0.4825 C   0  0  1  0  0  0  0  0  0  0  0  0
  204.9598  145.1115   -0.0615 C   0  0  1  0  0  0  0  0  0  0  0  0
  203.8080  146.1427   -0.1292 C   0  0  1  0  0  0  0  0  0  0  0  0
  202.7272  145.7083    0.6884 O   0  0  0  0  0  0  0  0  0  0  0  0
  205.4804  145.0743    1.2939 O   0  0  0  0  0  0  0  0  0  0  0  0
  202.6733  142.0981   -0.1733 O   0  0  0  0  0  0  0  0  0  0  0  0
  199.9588  145.1037    0.9836 O   0  0  0  0  0  0  0  0  0  0  0  0
  209.0053  144.5456    0.9699 C   0  0  2  0  0  0  0  0  0  0  0  0
  208.1000  143.3811    0.5457 C   0  0  2  0  0  0  0  0  0  0  0  0
  208.8642  142.0557    0.4993 C   0  0  2  0  0  0  0  0  0  0  0  0
  207.9196  140.9483    0.0139 C   0  0  1  0  0  0  0  0  0  0  0  0
  207.2311  141.3421   -1.2981 C   0  0  1  0  0  0  0  0  0  0  0  0
  206.5679  142.7315   -1.1759 C   0  0  2  0  0  0  0  0  0  0  0  0
  207.5530  143.6792   -0.7564 O   0  0  0  0  0  0  0  0  0  0  0  0
  208.2336  141.3345   -2.3409 O   0  0  0  0  0  0  0  0  0  0  0  0
  208.6978  139.7491   -0.1696 O   0  0  0  0  0  0  0  0  0  0  0  0
  209.3957  141.7006    1.7777 O   0  0  0  0  0  0  0  0  0  0  0  0
  208.2838  145.7788    1.0311 O   0  0  0  0  0  0  0  0  0  0  0  0
  210.1987  153.6451    0.9266 C   0  0  2  0  0  0  0  0  0  0  0  0
  209.0607  153.2957   -0.0486 C   0  0  2  0  0  0  0  0  0  0  0  0
  208.6143  154.5579   -0.8448 C   0  0  1  0  0  0  0  0  0  0  0  0
  207.1312  154.4987   -1.2669 C   0  0  1  0  0  0  0  0  0  0  0  0
  206.7999  153.0110   -1.4833 C   0  0  1  0  0  0  0  0  0  0  0  0
  206.8824  152.2590   -0.1285 C   0  0  1  0  0  0  0  0  0  0  0  0
  207.9786  152.7036    0.6877 O   0  0  0  0  0  0  0  0  0  0  0  0
  205.5449  152.8157   -2.1311 O   0  0  0  0  0  0  0  0  0  0  0  0
  208.8405  155.7697   -0.1082 O   0  0  0  0  0  0  0  0  0  0  0  0
  202.2171  153.9785   -2.0682 C   0  0  2  0  0  0  0  0  0  0  0  0
  202.9439  155.1032   -1.3303 C   0  0  1  0  0  0  0  0  0  0  0  0
  202.2583  155.5645   -0.0432 C   0  0  1  0  0  0  0  0  0  0  0  0
  203.0787  156.7267    0.5354 C   0  0  2  0  0  0  0  0  0  0  0  0
  204.5328  156.3137    0.7660 C   0  0  2  0  0  0  0  0  0  0  0  0
  205.1156  155.6495   -0.5111 C   0  0  2  0  0  0  0  0  0  0  0  0
  204.2613  154.6285   -1.0079 O   0  0  0  0  0  0  0  0  0  0  0  0
  204.5814  155.4345    1.9073 O   0  0  0  0  0  0  0  0  0  0  0  0
  202.4993  157.1556    1.7822 O   0  0  0  0  0  0  0  0  0  0  0  0
  200.9346  156.0538   -0.2609 O   0  0  0  0  0  0  0  0  0  0  0  0
  202.9152  153.7055   -3.2959 O   0  0  0  0  0  0  0  0  0  0  0  0
  213.9137  153.8200    1.5465 C   0  0  2  0  0  0  0  0  0  0  0  0
  213.9386  152.7612    0.4321 C   0  0  1  0  0  0  0  0  0  0  0  0
  214.6149  151.4516    0.8794 C   0  0  1  0  0  0  0  0  0  0  0  0
  213.6686  150.2514    0.8002 C   0  0  2  0  0  0  0  0  0  0  0  0
  212.3293  150.6246    1.4073 C   0  0  2  0  0  0  0  0  0  0  0  0
  211.6918  151.7750    0.5977 C   0  0  2  0  0  0  0  0  0  0  0  0
  212.6253  152.5797   -0.1286 O   0  0  0  0  0  0  0  0  0  0  0  0
  212.5662  151.0151    2.7799 O   0  0  0  0  0  0  0  0  0  0  0  0
  214.2695  149.1651    1.5271 O   0  0  0  0  0  0  0  0  0  0  0  0
  215.7568  151.1702    0.0492 O   0  0  0  0  0  0  0  0  0  0  0  0
  213.6210  155.1082    0.9988 O   0  0  0  0  0  0  0  0  0  0  0  0
  196.5033  151.0532   -0.0081 O   0  0  0  0  0  0  0  0  0  0  0  0
  201.5566  150.2619    2.1741 O   0  0  0  0  0  0  0  0  0  0  0  0
  204.4130  147.3362    0.3575 O   0  0  0  0  0  0  0  0  0  0  0  0
  205.4544  142.6711   -0.2988 O   0  0  0  0  0  0  0  0  0  0  0  0
  205.6367  152.4794    0.5326 O   0  0  0  0  0  0  0  0  0  0  0  0
  206.4115  155.1374   -0.1941 O   0  0  0  0  0  0  0  0  0  0  0  0
  210.8757  152.5212    1.5024 O   0  0  0  0  0  0  0  0  0  0  0  0
  188.8436  149.9988    2.4577 H   0  0  0  0  0  0  0  0  0  0  0  0
  189.8167  151.4551    2.7108 H   0  0  0  0  0  0  0  0  0  0  0  0
  190.2467  149.9235    3.5440 H   0  0  0  0  0  0  0  0  0  0  0  0
  192.8592  149.1564    0.1638 H   0  0  0  0  0  0  0  0  0  0  0  0
  194.2914  151.6722    1.1751 H   0  0  0  0  0  0  0  0  0  0  0  0
  195.2931  149.4487   -0.6436 H   0  0  0  0  0  0  0  0  0  0  0  0
  194.6182  152.3727   -1.3365 H   0  0  0  0  0  0  0  0  0  0  0  0
  191.4610  150.6039   -1.2840 H   0  0  0  0  0  0  0  0  0  0  0  0
  191.9494  152.3131    0.3596 H   0  0  0  0  0  0  0  0  0  0  0  0
  196.4922  151.8061   -2.7037 H   0  0  0  0  0  0  0  0  0  0  0  0
  195.0535  151.5936   -3.7056 H   0  0  0  0  0  0  0  0  0  0  0  0
  196.7104  149.6693   -2.5035 H   0  0  0  0  0  0  0  0  0  0  0  0
  193.8618  149.6946    2.3749 H   0  0  0  0  0  0  0  0  0  0  0  0
  196.9865  153.5543   -1.0103 H   0  0  0  0  0  0  0  0  0  0  0  0
  198.0351  153.7621   -2.4560 H   0  0  0  0  0  0  0  0  0  0  0  0
  198.0682  154.9462   -1.1410 H   0  0  0  0  0  0  0  0  0  0  0  0
  198.9312  151.4785    1.0906 H   0  0  0  0  0  0  0  0  0  0  0  0
  199.9330  149.0083   -0.3713 H   0  0  0  0  0  0  0  0  0  0  0  0
  199.9390  148.9784    2.2603 H   0  0  0  0  0  0  0  0  0  0  0  0
  196.5126  149.6221    1.5903 H   0  0  0  0  0  0  0  0  0  0  0  0
  197.2460  148.4015   -0.5052 H   0  0  0  0  0  0  0  0  0  0  0  0
  199.9264  147.1412    0.4566 H   0  0  0  0  0  0  0  0  0  0  0  0
  198.3780  147.1163    1.3565 H   0  0  0  0  0  0  0  0  0  0  0  0
  199.3540  145.6311    1.2122 H   0  0  0  0  0  0  0  0  0  0  0  0
  200.1031  148.0154    2.5673 H   0  0  0  0  0  0  0  0  0  0  0  0
  200.8569  151.2816   -0.8949 H   0  0  0  0  0  0  0  0  0  0  0  0
  206.2840  151.0841    1.9649 H   0  0  0  0  0  0  0  0  0  0  0  0
  205.2878  152.4086    2.5364 H   0  0  0  0  0  0  0  0  0  0  0  0
  203.3502  151.5160    1.2050 H   0  0  0  0  0  0  0  0  0  0  0  0
  205.4321  149.4194    0.5890 H   0  0  0  0  0  0  0  0  0  0  0  0
  202.6852  148.4241    0.0518 H   0  0  0  0  0  0  0  0  0  0  0  0
  202.2519  147.4828    2.2241 H   0  0  0  0  0  0  0  0  0  0  0  0
  202.3121  149.3685    3.8572 H   0  0  0  0  0  0  0  0  0  0  0  0
  204.7087  148.4203    3.2213 H   0  0  0  0  0  0  0  0  0  0  0  0
  203.2067  150.4293   -0.8476 H   0  0  0  0  0  0  0  0  0  0  0  0
  201.2801  144.1839    2.2452 H   0  0  0  0  0  0  0  0  0  0  0  0
  200.5641  143.1534    0.9808 H   0  0  0  0  0  0  0  0  0  0  0  0
  201.7955  144.5653   -0.7506 H   0  0  0  0  0  0  0  0  0  0  0  0
  203.5208  143.1335    1.3691 H   0  0  0  0  0  0  0  0  0  0  0  0
  204.1992  143.7274   -1.5455 H   0  0  0  0  0  0  0  0  0  0  0  0
  205.7877  145.4512   -0.6909 H   0  0  0  0  0  0  0  0  0  0  0  0
  203.4646  146.3008   -1.1584 H   0  0  0  0  0  0  0  0  0  0  0  0
  205.1218  145.8830    1.7320 H   0  0  0  0  0  0  0  0  0  0  0  0
  202.4309  142.2240   -1.1063 H   0  0  0  0  0  0  0  0  0  0  0  0
  200.3670  145.9812    1.1098 H   0  0  0  0  0  0  0  0  0  0  0  0
  209.8159  144.6888    0.2480 H   0  0  0  0  0  0  0  0  0  0  0  0
  209.4432  144.3680    1.9566 H   0  0  0  0  0  0  0  0  0  0  0  0
  207.2868  143.3141    1.2779 H   0  0  0  0  0  0  0  0  0  0  0  0
  209.7177  142.1330   -0.1858 H   0  0  0  0  0  0  0  0  0  0  0  0
  207.1779  140.7259    0.7900 H   0  0  0  0  0  0  0  0  0  0  0  0
  206.4935  140.5773   -1.5642 H   0  0  0  0  0  0  0  0  0  0  0  0
  206.2407  143.0370   -2.1769 H   0  0  0  0  0  0  0  0  0  0  0  0
  208.5889  142.2440   -2.3986 H   0  0  0  0  0  0  0  0  0  0  0  0
  208.9737  139.7621   -1.1097 H   0  0  0  0  0  0  0  0  0  0  0  0
  209.5987  140.7452    1.7195 H   0  0  0  0  0  0  0  0  0  0  0  0
  207.3464  145.5587    1.2196 H   0  0  0  0  0  0  0  0  0  0  0  0
  209.7839  154.1977    1.7775 H   0  0  0  0  0  0  0  0  0  0  0  0
  210.9333  154.2939    0.4432 H   0  0  0  0  0  0  0  0  0  0  0  0
  209.4026  152.5359   -0.7596 H   0  0  0  0  0  0  0  0  0  0  0  0
  209.2488  154.6189   -1.7369 H   0  0  0  0  0  0  0  0  0  0  0  0
  206.9778  155.0867   -2.1787 H   0  0  0  0  0  0  0  0  0  0  0  0
  207.5478  152.5965   -2.1701 H   0  0  0  0  0  0  0  0  0  0  0  0
  206.9947  151.1860   -0.3227 H   0  0  0  0  0  0  0  0  0  0  0  0
  204.9016  152.9681   -1.3951 H   0  0  0  0  0  0  0  0  0  0  0  0
  208.0403  155.8513    0.4590 H   0  0  0  0  0  0  0  0  0  0  0  0
  201.1968  154.2659   -2.3304 H   0  0  0  0  0  0  0  0  0  0  0  0
  202.2039  153.0553   -1.4824 H   0  0  0  0  0  0  0  0  0  0  0  0
  203.0409  155.9403   -2.0358 H   0  0  0  0  0  0  0  0  0  0  0  0
  202.2101  154.7552    0.6970 H   0  0  0  0  0  0  0  0  0  0  0  0
  203.0341  157.5869   -0.1446 H   0  0  0  0  0  0  0  0  0  0  0  0
  205.1403  157.1814    1.0478 H   0  0  0  0  0  0  0  0  0  0  0  0
  205.2366  156.4170   -1.2865 H   0  0  0  0  0  0  0  0  0  0  0  0
  203.8929  155.7682    2.5172 H   0  0  0  0  0  0  0  0  0  0  0  0
  201.5316  157.0962    1.6269 H   0  0  0  0  0  0  0  0  0  0  0  0
  200.3588  155.2492   -0.1755 H   0  0  0  0  0  0  0  0  0  0  0  0
  203.7854  153.3397   -3.0347 H   0  0  0  0  0  0  0  0  0  0  0  0
  214.8886  153.8984    2.0365 H   0  0  0  0  0  0  0  0  0  0  0  0
  213.1574  153.6082    2.3051 H   0  0  0  0  0  0  0  0  0  0  0  0
  214.5240  153.1908   -0.3909 H   0  0  0  0  0  0  0  0  0  0  0  0
  215.0266  151.5560    1.8907 H   0  0  0  0  0  0  0  0  0  0  0  0
  213.5540  149.9109   -0.2351 H   0  0  0  0  0  0  0  0  0  0  0  0
  211.6509  149.7667    1.4625 H   0  0  0  0  0  0  0  0  0  0  0  0
  211.0513  151.3138   -0.1606 H   0  0  0  0  0  0  0  0  0  0  0  0
  211.7796  151.5552    3.0184 H   0  0  0  0  0  0  0  0  0  0  0  0
  214.0450  149.3270    2.4672 H   0  0  0  0  0  0  0  0  0  0  0  0
  216.0344  150.2641    0.2902 H   0  0  0  0  0  0  0  0  0  0  0  0
  212.9042  154.9825    0.3513 H   0  0  0  0  0  0  0  0  0  0  0  0
  1  2  1  0
  1 96  1  6
  1 97  1  0
  1 98  1  0
  2  3  2  0
  2  4  1  0
  5  4  1  0
  5  6  1  0
  5 99  1  6
  6  7  1  0
  6 14  1  0
  6100  1  1
  7  8  1  0
  7 89  1  0
  7101  1  6
  8  9  1  0
  8 12  1  0
  8102  1  1
  9 10  1  0
 10 11  1  0
 10  5  1  0
 10103  1  6
 11104  1  0
 12 13  1  0
 12105  1  1
 12106  1  0
 13107  1  0
 14108  1  0
 15 16  1  0
 15109  1  1
 15110  1  0
 15111  1  0
 16 17  2  0
 16 18  1  0
 19 18  1  0
 19 20  1  0
 19112  1  1
 20 21  1  0
 20 27  1  0
 20113  1  6
 21 90  1  0
 21114  1  0
 23 22  1  1
 22115  1  0
 23 24  1  0
 23 19  1  0
 23 89  1  0
 24116  1  0
 25 26  1  0
 25117  1  6
 25118  1  0
 25119  1  0
 26120  1  0
 27121  1  0
 28122  1  1
 28123  1  0
 29 28  1  0
 29 30  1  0
 29124  1  6
 30 31  1  0
 30 36  1  0
 30125  1  6
 31 32  1  0
 31 91  1  0
 31126  1  1
 32 33  1  0
 32 35  1  0
 32127  1  6
 33 34  1  0
 33 90  1  0
 33128  1  1
 34 29  1  0
 35129  1  0
 36130  1  0
 37 46  1  0
 37131  1  1
 37132  1  0
 38 37  1  0
 38 39  1  0
 38133  1  6
 39 40  1  0
 39 45  1  0
 39134  1  1
 40 41  1  0
 40 92  1  0
 40135  1  1
 41 42  1  0
 41 44  1  0
 41136  1  6
 42 43  1  0
 42 91  1  0
 42137  1  6
 43 38  1  0
 44138  1  0
 45139  1  0
 46140  1  0
 47 57  1  0
 47141  1  6
 47142  1  0
 48 47  1  0
 48 49  1  0
 48143  1  1
 49 50  1  0
 49 56  1  0
 49144  1  6
 50 51  1  0
 50 55  1  0
 50145  1  1
 51 52  1  0
 51 54  1  0
 51146  1  6
 52 53  1  0
 52 92  1  0
 52147  1  1
 53 48  1  0
 54148  1  0
 55149  1  0
 56150  1  0
 57151  1  0
 58152  1  1
 58153  1  0
 59 58  1  0
 59 60  1  0
 59154  1  6
 60 61  1  0
 60 66  1  0
 60155  1  1
 61 62  1  0
 61 94  1  0
 61156  1  1
 62 63  1  0
 62 65  1  0
 62157  1  6
 63 64  1  0
 63 93  1  0
 63158  1  1
 64 59  1  0
 65159  1  0
 66160  1  0
 67 77  1  0
 67161  1  6
 67162  1  0
 68 67  1  0
 68 69  1  0
 68163  1  6
 69 70  1  0
 69 76  1  0
 69164  1  1
 70 71  1  0
 70 75  1  0
 70165  1  6
 71 72  1  0
 71 74  1  0
 71166  1  1
 72 73  1  0
 72 94  1  0
 72167  1  6
 73 68  1  0
 74168  1  0
 75169  1  0
 76170  1  0
 77171  1  0
 78 88  1  0
 78172  1  1
 78173  1  0
 79 78  1  0
 79 80  1  0
 79174  1  6
 80 81  1  0
 80 87  1  0
 80175  1  1
 81 82  1  0
 81 86  1  0
 81176  1  6
 82 83  1  0
 82 85  1  0
 82177  1  1
 83 84  1  0
 83 95  1  0
 83178  1  6
 84 79  1  0
 85179  1  0
 86180  1  0
 87181  1  0
 88182  1  0
 93 28  1  0
 95 58  1  0
M  RAD  3   4   2  18   2  21   2
M  END
>  <step>  (1) 
300

>  <phase>  (1) 
minimization

>  <energy>  (1) 
623.3868

$$$$
chair_1C4_beta_rank1_Q0.795_theta174.7_phi45.0_E15.2
     RDKit          3D

182187  0  0  0  0  0  0  0  0999 V2000
  189.9580  150.3407    2.7546 C   0  0  2  0  0  0  0  0  0  0  0  0
  190.8007  149.9119    1.5791 C   0  0  0  0  0  0  0  0  0  0  0  0
  190.3750  149.1098    0.7546 O   0  0  0  0  0  0  0  0  0  0  0  0
  191.9899  150.5188    1.6107 N   0  0  0  0  0  2  0  0  0  0  0  0
  192.8731  150.1836    0.4528 C   0  0  2  0  0  0  0  0  0  0  0  0
  194.3053  150.6422    0.8017 C   0  0  2  0  0  0  0  0  0  0  0  0
  195.2547  150.4665   -0.3840 C   0  0  1  0  0  0  0  0  0  0  0  0
  194.6683  151.1921   -1.6003 C   0  0  2  0  0  0  0  0  0  0  0  0
  193.3584  150.6956   -1.9107 O   0  0  0  0  0  0  0  0  0  0  0  0
  192.4147  150.8718   -0.8569 C   0  0  2  0  0  0  0  0  0  0  0  0
  192.1815  152.2574   -0.6031 O   0  0  0  0  0  0  0  0  0  0  0  0
  195.5507  151.0522   -2.8558 C   0  0  2  0  0  0  0  0  0  0  0  0
  195.9739  149.7104   -3.1147 O   0  0  0  0  0  0  0  0  0  0  0  0
  194.7718  149.8502    1.9168 O   0  0  0  0  0  0  0  0  0  0  0  0
  198.0103  153.8077   -1.6529 C   0  0  2  0  0  0  0  0  0  0  0  0
  199.0615  153.0847   -0.8521 C   0  0  0  0  0  0  0  0  0  0  0  0
  199.7946  153.6892   -0.0733 O   0  0  0  0  0  0  0  0  0  0  0  0
  199.1041  151.7859   -1.1443 N   0  0  0  0  0  2  0  0  0  0  0  0
  198.9597  150.9163    0.0898 C   0  0  2  0  0  0  0  0  0  0  0  0
  200.1754  149.9428    0.1755 C   0  0  2  0  0  0  0  0  0  0  0  0
  200.5901  149.5821    1.5709 C   0  0  0  0  0  3  0  0  0  0  0  0
  197.4637  149.4236    1.3137 O   0  0  0  0  0  0  0  0  0  0  0  0
  197.6029  150.1257    0.0973 C   0  0  2  0  0  0  0  0  0  0  0  0
  197.6062  149.1456   -0.9252 O   0  0  0  0  0  0  0  0  0  0  0  0
  199.3948  146.7182    1.3125 C   0  0  2  0  0  0  0  0  0  0  0  0
  200.0830  147.0452    2.5057 O   0  0  0  0  0  0  0  0  0  0  0  0
  201.3308  150.5347   -0.4671 O   0  0  0  0  0  0  0  0  0  0  0  0
  205.4327  151.7715    1.7102 C   0  0  2  0  0  0  0  0  0  0  0  0
  204.1614  150.9045    1.5732 C   0  0  1  0  0  0  0  0  0  0  0  0
  204.4089  149.7433    0.5822 C   0  0  1  0  0  0  0  0  0  0  0  0
  203.5631  148.4641    0.7838 C   0  0  2  0  0  0  0  0  0  0  0  0
  203.0746  148.2827    2.2303 C   0  0  2  0  0  0  0  0  0  0  0  0
  202.6067  149.6231    2.8287 C   0  0  1  0  0  0  0  0  0  0  0  0
  203.8043  150.4362    2.8864 O   0  0  0  0  0  0  0  0  0  0  0  0
  204.1473  147.7399    3.0472 O   0  0  0  0  0  0  0  0  0  0  0  0
  204.2243  150.1969   -0.7716 O   0  0  0  0  0  0  0  0  0  0  0  0
  200.9859  144.1946    1.2073 C   0  0  2  0  0  0  0  0  0  0  0  0
  202.1711  144.5120    0.2884 C   0  0  2  0  0  0  0  0  0  0  0  0
  203.2061  143.3757    0.3142 C   0  0  2  0  0  0  0  0  0  0  0  0
  204.4575  143.7702   -0.4951 C   0  0  1  0  0  0  0  0  0  0  0  0
  204.9586  145.1501   -0.0454 C   0  0  1  0  0  0  0  0  0  0  0  0
  203.8170  146.1935   -0.0871 C   0  0  1  0  0  0  0  0  0  0  0  0
  202.7358  145.7548    0.7280 O   0  0  0  0  0  0  0  0  0  0  0  0
  205.4815  145.0790    1.3076 O   0  0  0  0  0  0  0  0  0  0  0  0
  202.6373  142.1666   -0.2148 O   0  0  0  0  0  0  0  0  0  0  0  0
  199.9655  145.1761    1.0329 O   0  0  0  0  0  0  0  0  0  0  0  0
  208.9919  144.4790    1.0269 C   0  0  2  0  0  0  0  0  0  0  0  0
  208.0706  143.3472    0.5519 C   0  0  2  0  0  0  0  0  0  0  0  0
  208.8130  142.0118    0.4627 C   0  0  2  0  0  0  0  0  0  0  0  0
  207.8570  140.9396   -0.0764 C   0  0  1  0  0  0  0  0  0  0  0  0
  207.1889  141.3958   -1.3785 C   0  0  1  0  0  0  0  0  0  0  0  0
  206.5449  142.7885   -1.2069 C   0  0  2  0  0  0  0  0  0  0  0  0
  207.5406  143.7037   -0.7426 O   0  0  0  0  0  0  0  0  0  0  0  0
  208.2026  141.4156   -2.4100 O   0  0  0  0  0  0  0  0  0  0  0  0
  208.6186  139.7365   -0.2995 O   0  0  0  0  0  0  0  0  0  0  0  0
  209.3233  141.5986    1.7324 O   0  0  0  0  0  0  0  0  0  0  0  0
  208.2928  145.7227    1.1235 O   0  0  0  0  0  0  0  0  0  0  0  0
  210.2102  153.6997    0.9386 C   0  0  2  0  0  0  0  0  0  0  0  0
  209.0678  153.3615   -0.0359 C   0  0  2  0  0  0  0  0  0  0  0  0
  208.6125  154.6294   -0.8174 C   0  0  1  0  0  0  0  0  0  0  0  0
  207.1316  154.5598   -1.2500 C   0  0  1  0  0  0  0  0  0  0  0  0
  206.8179  153.0689   -1.4775 C   0  0  1  0  0  0  0  0  0  0  0  0
  206.8977  152.3132   -0.1242 C   0  0  1  0  0  0  0  0  0  0  0  0
  207.9900  152.7582    0.6967 O   0  0  0  0  0  0  0  0  0  0  0  0
  205.5696  152.8629   -2.1354 O   0  0  0  0  0  0  0  0  0  0  0  0
  208.8217  155.8312   -0.0609 O   0  0  0  0  0  0  0  0  0  0  0  0
  202.2419  154.0089   -2.1348 C   0  0  2  0  0  0  0  0  0  0  0  0
  202.9458  155.1290   -1.3678 C   0  0  1  0  0  0  0  0  0  0  0  0
  202.2311  155.5636   -0.0873 C   0  0  1  0  0  0  0  0  0  0  0  0
  203.0328  156.7188    0.5298 C   0  0  2  0  0  0  0  0  0  0  0  0
  204.4867  156.3153    0.7773 C   0  0  2  0  0  0  0  0  0  0  0  0
  205.0975  155.6848   -0.5023 C   0  0  2  0  0  0  0  0  0  0  0  0
  204.2626  154.6632   -1.0297 O   0  0  0  0  0  0  0  0  0  0  0  0
  204.5247  155.4121    1.8998 O   0  0  0  0  0  0  0  0  0  0  0  0
  202.4295  157.1174    1.7749 O   0  0  0  0  0  0  0  0  0  0  0  0
  200.9103  156.0522   -0.3246 O   0  0  0  0  0  0  0  0  0  0  0  0
  202.9696  153.7531   -3.3489 O   0  0  0  0  0  0  0  0  0  0  0  0
  213.9646  153.7007    1.6760 C   0  0  2  0  0  0  0  0  0  0  0  0
  213.9615  152.7048    0.5041 C   0  0  1  0  0  0  0  0  0  0  0  0
  214.5840  151.3459    0.8795 C   0  0  1  0  0  0  0  0  0  0  0  0
  213.5779  150.1953    0.7894 C   0  0  2  0  0  0  0  0  0  0  0  0
  212.2605  150.6202    1.4100 C   0  0  2  0  0  0  0  0  0  0  0  0
  211.6761  151.8085    0.6152 C   0  0  2  0  0  0  0  0  0  0  0  0
  212.6478  152.5998   -0.0746 O   0  0  0  0  0  0  0  0  0  0  0  0
  212.5185  150.9780    2.7867 O   0  0  0  0  0  0  0  0  0  0  0  0
  214.1297  149.0675    1.4907 O   0  0  0  0  0  0  0  0  0  0  0  0
  215.6804  151.0397   -0.0025 O   0  0  0  0  0  0  0  0  0  0  0  0
  213.7076  155.0243    1.1993 O   0  0  0  0  0  0  0  0  0  0  0  0
  196.5258  151.0388   -0.0533 O   0  0  0  0  0  0  0  0  0  0  0  0
  201.5690  150.3299    2.1609 O   0  0  0  0  0  0  0  0  0  0  0  0
  204.4331  147.3706    0.4240 O   0  0  0  0  0  0  0  0  0  0  0  0
  205.4248  142.7099   -0.3400 O   0  0  0  0  0  0  0  0  0  0  0  0
  205.6492  152.5311    0.5313 O   0  0  0  0  0  0  0  0  0  0  0  0
  206.3963  155.1835   -0.1775 O   0  0  0  0  0  0  0  0  0  0  0  0
  210.8700  152.5663    1.5185 O   0  0  0  0  0  0  0  0  0  0  0  0
  188.9571  149.9078    2.6570 H   0  0  0  0  0  0  0  0  0  0  0  0
  189.8526  151.4298    2.7787 H   0  0  0  0  0  0  0  0  0  0  0  0
  190.3988  149.9820    3.6893 H   0  0  0  0  0  0  0  0  0  0  0  0
  192.9200  149.0977    0.2833 H   0  0  0  0  0  0  0  0  0  0  0  0
  194.3226  151.6854    1.1442 H   0  0  0  0  0  0  0  0  0  0  0  0
  195.3243  149.3911   -0.5856 H   0  0  0  0  0  0  0  0  0  0  0  0
  194.5910  152.2692   -1.3996 H   0  0  0  0  0  0  0  0  0  0  0  0
  191.4664  150.4488   -1.2020 H   0  0  0  0  0  0  0  0  0  0  0  0
  191.9505  152.2417    0.3493 H   0  0  0  0  0  0  0  0  0  0  0  0
  196.4487  151.6690   -2.7748 H   0  0  0  0  0  0  0  0  0  0  0  0
  194.9953  151.3858   -3.7382 H   0  0  0  0  0  0  0  0  0  0  0  0
  196.7041  149.5456   -2.4758 H   0  0  0  0  0  0  0  0  0  0  0  0
  193.9498  149.7627    2.4483 H   0  0  0  0  0  0  0  0  0  0  0  0
  197.0129  153.5361   -1.2970 H   0  0  0  0  0  0  0  0  0  0  0  0
  198.1105  153.5900   -2.7201 H   0  0  0  0  0  0  0  0  0  0  0  0
  198.1357  154.8869   -1.5166 H   0  0  0  0  0  0  0  0  0  0  0  0
  198.9624  151.5340    1.0016 H   0  0  0  0  0  0  0  0  0  0  0  0
  199.9818  149.0180   -0.3765 H   0  0  0  0  0  0  0  0  0  0  0  0
  199.9552  149.0422    2.2569 H   0  0  0  0  0  0  0  0  0  0  0  0
  196.5671  149.6862    1.6170 H   0  0  0  0  0  0  0  0  0  0  0  0
  197.2900  148.3712   -0.4309 H   0  0  0  0  0  0  0  0  0  0  0  0
  199.9264  147.1412    0.4566 H   0  0  0  0  0  0  0  0  0  0  0  0
  198.3780  147.1163    1.3565 H   0  0  0  0  0  0  0  0  0  0  0  0
  199.3540  145.6311    1.2122 H   0  0  0  0  0  0  0  0  0  0  0  0
  200.1031  148.0154    2.5673 H   0  0  0  0  0  0  0  0  0  0  0  0
  200.8892  151.2755   -0.9516 H   0  0  0  0  0  0  0  0  0  0  0  0
  206.2996  151.1551    1.9802 H   0  0  0  0  0  0  0  0  0  0  0  0
  205.2947  152.4800    2.5353 H   0  0  0  0  0  0  0  0  0  0  0  0
  203.3711  151.5630    1.1907 H   0  0  0  0  0  0  0  0  0  0  0  0
  205.4655  149.4548    0.6492 H   0  0  0  0  0  0  0  0  0  0  0  0
  202.7187  148.4685    0.0883 H   0  0  0  0  0  0  0  0  0  0  0  0
  202.2640  147.5505    2.2670 H   0  0  0  0  0  0  0  0  0  0  0  0
  202.3034  149.4662    3.8701 H   0  0  0  0  0  0  0  0  0  0  0  0
  204.7098  148.5066    3.2751 H   0  0  0  0  0  0  0  0  0  0  0  0
  203.2715  150.4473   -0.8469 H   0  0  0  0  0  0  0  0  0  0  0  0
  201.2840  144.2109    2.2607 H   0  0  0  0  0  0  0  0  0  0  0  0
  200.5461  143.2198    0.9789 H   0  0  0  0  0  0  0  0  0  0  0  0
  201.7823  144.6545   -0.7289 H   0  0  0  0  0  0  0  0  0  0  0  0
  203.5037  143.1556    1.3468 H   0  0  0  0  0  0  0  0  0  0  0  0
  204.1768  143.8082   -1.5564 H   0  0  0  0  0  0  0  0  0  0  0  0
  205.7889  145.4944   -0.6694 H   0  0  0  0  0  0  0  0  0  0  0  0
  203.4724  146.3768   -1.1115 H   0  0  0  0  0  0  0  0  0  0  0  0
  205.1451  145.8909    1.7567 H   0  0  0  0  0  0  0  0  0  0  0  0
  202.3870  142.3179   -1.1420 H   0  0  0  0  0  0  0  0  0  0  0  0
  200.3864  146.0458    1.1707 H   0  0  0  0  0  0  0  0  0  0  0  0
  209.8135  144.6326    0.3199 H   0  0  0  0  0  0  0  0  0  0  0  0
  209.4147  144.2591    2.0115 H   0  0  0  0  0  0  0  0  0  0  0  0
  207.2496  143.2679    1.2741 H   0  0  0  0  0  0  0  0  0  0  0  0
  209.6759  142.1012   -0.2091 H   0  0  0  0  0  0  0  0  0  0  0  0
  207.1036  140.6981    0.6824 H   0  0  0  0  0  0  0  0  0  0  0  0
  206.4434  140.6534   -1.6832 H   0  0  0  0  0  0  0  0  0  0  0  0
  206.2300  143.1386   -2.1972 H   0  0  0  0  0  0  0  0  0  0  0  0
  208.5708  142.3216   -2.4283 H   0  0  0  0  0  0  0  0  0  0  0  0
  208.9061  139.7832   -1.2351 H   0  0  0  0  0  0  0  0  0  0  0  0
  209.5118  140.6430    1.6391 H   0  0  0  0  0  0  0  0  0  0  0  0
  207.3460  145.5135    1.2739 H   0  0  0  0  0  0  0  0  0  0  0  0
  209.8032  154.2598    1.7882 H   0  0  0  0  0  0  0  0  0  0  0  0
  210.9541  154.3366    0.4529 H   0  0  0  0  0  0  0  0  0  0  0  0
  209.4099  152.6113   -0.7567 H   0  0  0  0  0  0  0  0  0  0  0  0
  209.2531  154.7104   -1.7037 H   0  0  0  0  0  0  0  0  0  0  0  0
  206.9808  155.1507   -2.1612 H   0  0  0  0  0  0  0  0  0  0  0  0
  207.5743  152.6642   -2.1612 H   0  0  0  0  0  0  0  0  0  0  0  0
  207.0103  151.2405   -0.3195 H   0  0  0  0  0  0  0  0  0  0  0  0
  204.9184  153.0144   -1.4060 H   0  0  0  0  0  0  0  0  0  0  0  0
  208.0157  155.8996    0.4997 H   0  0  0  0  0  0  0  0  0  0  0  0
  201.2259  154.2941   -2.4177 H   0  0  0  0  0  0  0  0  0  0  0  0
  202.2201  153.0787   -1.5603 H   0  0  0  0  0  0  0  0  0  0  0  0
  203.0464  155.9775   -2.0586 H   0  0  0  0  0  0  0  0  0  0  0  0
  202.1698  154.7414    0.6369 H   0  0  0  0  0  0  0  0  0  0  0  0
  202.9926  157.5936   -0.1309 H   0  0  0  0  0  0  0  0  0  0  0  0
  205.0817  157.1815    1.0876 H   0  0  0  0  0  0  0  0  0  0  0  0
  205.2179  156.4664   -1.2635 H   0  0  0  0  0  0  0  0  0  0  0  0
  203.8238  155.7268    2.5057 H   0  0  0  0  0  0  0  0  0  0  0  0
  201.4647  157.0542    1.6043 H   0  0  0  0  0  0  0  0  0  0  0  0
  200.3338  155.2450   -0.2706 H   0  0  0  0  0  0  0  0  0  0  0  0
  203.8376  153.3936   -3.0716 H   0  0  0  0  0  0  0  0  0  0  0  0
  214.9414  153.7235    2.1683 H   0  0  0  0  0  0  0  0  0  0  0  0
  213.2026  153.4711    2.4233 H   0  0  0  0  0  0  0  0  0  0  0  0
  214.5691  153.1577   -0.2900 H   0  0  0  0  0  0  0  0  0  0  0  0
  215.0363  151.3923    1.8774 H   0  0  0  0  0  0  0  0  0  0  0  0
  213.4390  149.8790   -0.2508 H   0  0  0  0  0  0  0  0  0  0  0  0
  211.5430  149.7939    1.4540 H   0  0  0  0  0  0  0  0  0  0  0  0
  211.0370  151.3839   -0.1654 H   0  0  0  0  0  0  0  0  0  0  0  0
  211.7491  151.5348    3.0411 H   0  0  0  0  0  0  0  0  0  0  0  0
  213.9173  149.2194    2.4352 H   0  0  0  0  0  0  0  0  0  0  0  0
  215.9253  150.1147    0.1985 H   0  0  0  0  0  0  0  0  0  0  0  0
  212.9680  154.9537    0.5693 H   0  0  0  0  0  0  0  0  0  0  0  0
  1  2  1  0
  1 96  1  6
  1 97  1  0
  1 98  1  0
  2  3  2  0
  2  4  1  0
  5  4  1  0
  5  6  1  0
  5 99  1  6
  6  7  1  0
  6 14  1  0
  6100  1  1
  7  8  1  0
  7 89  1  0
  7101  1  6
  8  9  1  0
  8 12  1  0
  8102  1  1
  9 10  1  0
 10 11  1  0
 10  5  1  0
 10103  1  6
 11104  1  0
 12 13  1  0
 12105  1  1
 12106  1  0
 13107  1  0
 14108  1  0
 15 16  1  0
 15109  1  1
 15110  1  0
 15111  1  0
 16 17  2  0
 16 18  1  0
 19 18  1  0
 19 20  1  0
 19112  1  1
 20 21  1  0
 20 27  1  0
 20113  1  6
 21 90  1  0
 21114  1  0
 23 22  1  1
 22115  1  0
 23 24  1  0
 23 19  1  0
 23 89  1  0
 24116  1  0
 25 26  1  0
 25117  1  6
 25118  1  0
 25119  1  0
 26120  1  0
 27121  1  0
 28122  1  1
 28123  1  0
 29 28  1  0
 29 30  1  0
 29124  1  6
 30 31  1  0
 30 36  1  0
 30125  1  6
 31 32  1  0
 31 91  1  0
 31126  1  1
 32 33  1  0
 32 35  1  0
 32127  1  6
 33 34  1  0
 33 90  1  0
 33128  1  1
 34 29  1  0
 35129  1  0
 36130  1  0
 37 46  1  0
 37131  1  1
 37132  1  0
 38 37  1  0
 38 39  1  0
 38133  1  6
 39 40  1  0
 39 45  1  0
 39134  1  1
 40 41  1  0
 40 92  1  0
 40135  1  1
 41 42  1  0
 41 44  1  0
 41136  1  6
 42 43  1  0
 42 91  1  0
 42137  1  6
 43 38  1  0
 44138  1  0
 45139  1  0
 46140  1  0
 47 57  1  0
 47141  1  6
 47142  1  0
 48 47  1  0
 48 49  1  0
 48143  1  1
 49 50  1  0
 49 56  1  0
 49144  1  6
 50 51  1  0
 50 55  1  0
 50145  1  1
 51 52  1  0
 51 54  1  0
 51146  1  6
 52 53  1  0
 52 92  1  0
 52147  1  1
 53 48  1  0
 54148  1  0
 55149  1  0
 56150  1  0
 57151  1  0
 58152  1  1
 58153  1  0
 59 58  1  0
 59 60  1  0
 59154  1  6
 60 61  1  0
 60 66  1  0
 60155  1  1
 61 62  1  0
 61 94  1  0
 61156  1  1
 62 63  1  0
 62 65  1  0
 62157  1  6
 63 64  1  0
 63 93  1  0
 63158  1  1
 64 59  1  0
 65159  1  0
 66160  1  0
 67 77  1  0
 67161  1  6
 67162  1  0
 68 67  1  0
 68 69  1  0
 68163  1  6
 69 70  1  0
 69 76  1  0
 69164  1  1
 70 71  1  0
 70 75  1  0
 70165  1  6
 71 72  1  0
 71 74  1  0
 71166  1  1
 72 73  1  0
 72 94  1  0
 72167  1  6
 73 68  1  0
 74168  1  0
 75169  1  0
 76170  1  0
 77171  1  0
 78 88  1  0
 78172  1  1
 78173  1  0
 79 78  1  0
 79 80  1  0
 79174  1  6
 80 81  1  0
 80 87  1  0
 80175  1  1
 81 82  1  0
 81 86  1  0
 81176  1  6
 82 83  1  0
 82 85  1  0
 82177  1  1
 83 84  1  0
 83 95  1  0
 83178  1  6
 84 79  1  0
 85179  1  0
 86180  1  0
 87181  1  0
 88182  1  0
 93 28  1  0
 95 58  1  0
M  RAD  3   4   2  18   2  21   2
M  END
>  <step>  (1) 
350

>  <phase>  (1) 
minimization

>  <energy>  (1) 
621.5367

$$$$
chair_1C4_beta_rank1_Q0.795_theta174.7_phi45.0_E15.2
     RDKit          3D

182187  0  0  0  0  0  0  0  0999 V2000
  190.0488  150.3377    2.7667 C   0  0  2  0  0  0  0  0  0  0  0  0
  190.8737  149.8913    1.5859 C   0  0  0  0  0  0  0  0  0  0  0  0
  190.4438  149.0438    0.8883 O   0  0  0  0  0  0  0  0  0  0  0  0
  192.0464  150.5157    1.5694 N   0  0  0  0  0  2  0  0  0  0  0  0
  192.9105  150.1459    0.5050 C   0  0  2  0  0  0  0  0  0  0  0  0
  194.3438  150.6434    0.8057 C   0  0  2  0  0  0  0  0  0  0  0  0
  195.2781  150.4261   -0.2740 C   0  0  1  0  0  0  0  0  0  0  0  0
  194.6636  151.0928   -1.5094 C   0  0  2  0  0  0  0  0  0  0  0  0
  193.3557  150.5677   -1.7768 O   0  0  0  0  0  0  0  0  0  0  0  0
  192.4272  150.7733   -0.7166 C   0  0  2  0  0  0  0  0  0  0  0  0
  192.1764  152.1640   -0.5161 O   0  0  0  0  0  0  0  0  0  0  0  0
  195.5295  150.9137   -2.7715 C   0  0  2  0  0  0  0  0  0  0  0  0
  195.9669  149.5676   -2.9826 O   0  0  0  0  0  0  0  0  0  0  0  0
  194.8410  149.9046    1.8593 O   0  0  0  0  0  0  0  0  0  0  0  0
  198.0560  153.7264   -1.7843 C   0  0  2  0  0  0  0  0  0  0  0  0
  199.0665  153.0460   -0.9022 C   0  0  0  0  0  0  0  0  0  0  0  0
  199.7637  153.6875   -0.1214 O   0  0  0  0  0  0  0  0  0  0  0  0
  199.1222  151.7367   -1.1349 N   0  0  0  0  0  2  0  0  0  0  0  0
  198.9874  150.9202    0.1393 C   0  0  2  0  0  0  0  0  0  0  0  0
  200.2091  149.9600    0.2591 C   0  0  2  0  0  0  0  0  0  0  0  0
  200.6128  149.6291    1.5027 C   0  0  0  0  0  3  0  0  0  0  0  0
  197.5134  149.4671    1.3277 O   0  0  0  0  0  0  0  0  0  0  0  0
  197.6336  150.1249    0.1893 C   0  0  2  0  0  0  0  0  0  0  0  0
  197.6383  149.1018   -0.7966 O   0  0  0  0  0  0  0  0  0  0  0  0
  199.3943  146.7155    1.3061 C   0  0  2  0  0  0  0  0  0  0  0  0
  200.0830  147.0452    2.4057 O   0  0  0  0  0  0  0  0  0  0  0  0
  201.3667  150.5493   -0.3817 O   0  0  0  0  0  0  0  0  0  0  0  0
  205.4440  151.8257    1.6204 C   0  0  2  0  0  0  0  0  0  0  0  0
  204.1828  150.9457    1.5161 C   0  0  1  0  0  0  0  0  0  0  0  0
  204.4488  149.7672    0.6058 C   0  0  1  0  0  0  0  0  0  0  0  0
  203.5895  148.4995    0.8095 C   0  0  2  0  0  0  0  0  0  0  0  0
  203.0865  148.3405    2.1715 C   0  0  2  0  0  0  0  0  0  0  0  0
  202.6108  149.6887    2.7425 C   0  0  1  0  0  0  0  0  0  0  0  0
  203.8061  150.5033    2.8024 O   0  0  0  0  0  0  0  0  0  0  0  0
  204.1493  147.8109    3.0083 O   0  0  0  0  0  0  0  0  0  0  0  0
  204.2905  150.2014   -0.6460 O   0  0  0  0  0  0  0  0  0  0  0  0
  200.9768  144.2389    1.2157 C   0  0  2  0  0  0  0  0  0  0  0  0
  202.1645  144.5642    0.3753 C   0  0  2  0  0  0  0  0  0  0  0  0
  203.1874  143.4211    0.3740 C   0  0  2  0  0  0  0  0  0  0  0  0
  204.4415  143.8154   -0.4052 C   0  0  1  0  0  0  0  0  0  0  0  0
  204.9585  145.1807    0.0706 C   0  0  1  0  0  0  0  0  0  0  0  0
  203.8267  146.2348    0.0533 C   0  0  1  0  0  0  0  0  0  0  0  0
  202.7459  145.7893    0.7525 O   0  0  0  0  0  0  0  0  0  0  0  0
  205.4832  145.0781    1.3075 O   0  0  0  0  0  0  0  0  0  0  0  0
  202.6053  142.2259   -0.1524 O   0  0  0  0  0  0  0  0  0  0  0  0
  199.9700  145.2398    1.0678 O   0  0  0  0  0  0  0  0  0  0  0  0
  208.9781  144.4157    1.0515 C   0  0  2  0  0  0  0  0  0  0  0  0
  208.0542  143.3175    0.5358 C   0  0  2  0  0  0  0  0  0  0  0  0
  208.7675  141.9722    0.4164 C   0  0  2  0  0  0  0  0  0  0  0  0
  207.8012  140.9312   -0.0594 C   0  0  1  0  0  0  0  0  0  0  0  0
  207.1495  141.4401   -1.3502 C   0  0  1  0  0  0  0  0  0  0  0  0
  206.5234  142.8343   -1.1361 C   0  0  2  0  0  0  0  0  0  0  0  0
  207.5281  143.7197   -0.6364 O   0  0  0  0  0  0  0  0  0  0  0  0
  208.1707  141.4808   -2.3733 O   0  0  0  0  0  0  0  0  0  0  0  0
  208.5477  139.7258   -0.3177 O   0  0  0  0  0  0  0  0  0  0  0  0
  209.2596  141.5071    1.5808 O   0  0  0  0  0  0  0  0  0  0  0  0
  208.3047  145.6690    1.1842 O   0  0  0  0  0  0  0  0  0  0  0  0
  210.2260  153.7331    0.9462 C   0  0  2  0  0  0  0  0  0  0  0  0
  209.0719  153.4172    0.0845 C   0  0  2  0  0  0  0  0  0  0  0  0
  208.6089  154.6948   -0.6755 C   0  0  1  0  0  0  0  0  0  0  0  0
  207.1319  154.6158   -1.1243 C   0  0  1  0  0  0  0  0  0  0  0  0
  206.8325  153.1229   -1.3659 C   0  0  1  0  0  0  0  0  0  0  0  0
  206.9076  152.3602   -0.0159 C   0  0  1  0  0  0  0  0  0  0  0  0
  207.9988  152.7987    0.6961 O   0  0  0  0  0  0  0  0  0  0  0  0
  205.5916  152.9093   -2.0348 O   0  0  0  0  0  0  0  0  0  0  0  0
  208.7978  155.8824    0.1082 O   0  0  0  0  0  0  0  0  0  0  0  0
  202.2664  154.0343   -2.0969 C   0  0  2  0  0  0  0  0  0  0  0  0
  202.9461  155.1523   -1.3055 C   0  0  1  0  0  0  0  0  0  0  0  0
  202.2029  155.5671   -0.0345 C   0  0  1  0  0  0  0  0  0  0  0  0
  202.9842  156.7142    0.5066 C   0  0  2  0  0  0  0  0  0  0  0  0
  204.4378  156.3267    0.7672 C   0  0  2  0  0  0  0  0  0  0  0  0
  205.0771  155.7172   -0.3950 C   0  0  2  0  0  0  0  0  0  0  0  0
  204.2604  154.6936   -0.9476 O   0  0  0  0  0  0  0  0  0  0  0  0
  204.4633  155.4057    1.7917 O   0  0  0  0  0  0  0  0  0  0  0  0
  202.3567  157.0963    1.6526 O   0  0  0  0  0  0  0  0  0  0  0  0
  200.8845  156.0513   -0.2945 O   0  0  0  0  0  0  0  0  0  0  0  0
  203.0219  153.7925   -3.2966 O   0  0  0  0  0  0  0  0  0  0  0  0
  213.9876  153.6142    1.6636 C   0  0  2  0  0  0  0  0  0  0  0  0
  213.9714  152.6596    0.5429 C   0  0  1  0  0  0  0  0  0  0  0  0
  214.5457  151.2643    0.8909 C   0  0  1  0  0  0  0  0  0  0  0  0
  213.5043  150.1540    0.7656 C   0  0  2  0  0  0  0  0  0  0  0  0
  212.1978  150.6028    1.3903 C   0  0  2  0  0  0  0  0  0  0  0  0
  211.6622  151.8264    0.6107 C   0  0  2  0  0  0  0  0  0  0  0  0
  212.6611  152.6073    0.0651 O   0  0  0  0  0  0  0  0  0  0  0  0
  212.4539  150.9245    2.6844 O   0  0  0  0  0  0  0  0  0  0  0  0
  214.0153  148.9960    1.4427 O   0  0  0  0  0  0  0  0  0  0  0  0
  215.6339  150.9497    0.1090 O   0  0  0  0  0  0  0  0  0  0  0  0
  213.7585  154.9608    1.3204 O   0  0  0  0  0  0  0  0  0  0  0  0
  196.5512  151.0251    0.0091 O   0  0  0  0  0  0  0  0  0  0  0  0
  201.5807  150.3851    2.0515 O   0  0  0  0  0  0  0  0  0  0  0  0
  204.4586  147.3928    0.4771 O   0  0  0  0  0  0  0  0  0  0  0  0
  205.3978  142.7428   -0.2766 O   0  0  0  0  0  0  0  0  0  0  0  0
  205.6569  152.5792    0.5184 O   0  0  0  0  0  0  0  0  0  0  0  0
  206.3769  155.2261   -0.0576 O   0  0  0  0  0  0  0  0  0  0  0  0
  210.8642  152.5883    1.4962 O   0  0  0  0  0  0  0  0  0  0  0  0
  189.0609  149.8612    2.7241 H   0  0  0  0  0  0  0  0  0  0  0  0
  189.8990  151.4239    2.7438 H   0  0  0  0  0  0  0  0  0  0  0  0
  190.5303  150.0426    3.7065 H   0  0  0  0  0  0  0  0  0  0  0  0
  192.9758  149.0563    0.4878 H   0  0  0  0  0  0  0  0  0  0  0  0
  194.3564  151.6943    1.0997 H   0  0  0  0  0  0  0  0  0  0  0  0
  195.3562  149.3415   -0.4333 H   0  0  0  0  0  0  0  0  0  0  0  0
  194.5752  152.1766   -1.3506 H   0  0  0  0  0  0  0  0  0  0  0  0
  191.4797  150.3221   -1.0277 H   0  0  0  0  0  0  0  0  0  0  0  0
  191.9582  152.1871    0.4393 H   0  0  0  0  0  0  0  0  0  0  0  0
  196.4202  151.5454   -2.7284 H   0  0  0  0  0  0  0  0  0  0  0  0
  194.9559  151.2038   -3.6570 H   0  0  0  0  0  0  0  0  0  0  0  0
  196.7069  149.4372   -2.3453 H   0  0  0  0  0  0  0  0  0  0  0  0
  194.0273  149.8298    2.4065 H   0  0  0  0  0  0  0  0  0  0  0  0
  197.0447  153.5051   -1.4347 H   0  0  0  0  0  0  0  0  0  0  0  0
  198.1739  153.4247   -2.8299 H   0  0  0  0  0  0  0  0  0  0  0  0
  198.2051  154.8089   -1.7301 H   0  0  0  0  0  0  0  0  0  0  0  0
  199.0032  151.5752    0.8916 H   0  0  0  0  0  0  0  0  0  0  0  0
  200.0283  149.0236   -0.2807 H   0  0  0  0  0  0  0  0  0  0  0  0
  199.9721  149.0903    2.1523 H   0  0  0  0  0  0  0  0  0  0  0  0
  196.6183  149.7420    1.5368 H   0  0  0  0  0  0  0  0  0  0  0  0
  197.3335  148.3482   -0.2640 H   0  0  0  0  0  0  0  0  0  0  0  0
  199.9200  147.1578    0.5335 H   0  0  0  0  0  0  0  0  0  0  0  0
  198.3803  147.1096    1.3384 H   0  0  0  0  0  0  0  0  0  0  0  0
  199.3243  145.6448    1.1963 H   0  0  0  0  0  0  0  0  0  0  0  0
  200.1031  148.0154    2.4673 H   0  0  0  0  0  0  0  0  0  0  0  0
  200.9231  151.2676   -0.8967 H   0  0  0  0  0  0  0  0  0  0  0  0
  206.3127  151.2193    1.8997 H   0  0  0  0  0  0  0  0  0  0  0  0
  205.2960  152.5418    2.4386 H   0  0  0  0  0  0  0  0  0  0  0  0
  203.3898  151.6183    1.1716 H   0  0  0  0  0  0  0  0  0  0  0  0
  205.5016  149.4637    0.7186 H   0  0  0  0  0  0  0  0  0  0  0  0
  202.7506  148.5059    0.2241 H   0  0  0  0  0  0  0  0  0  0  0  0
  202.2756  147.6055    2.2081 H   0  0  0  0  0  0  0  0  0  0  0  0
  202.2955  149.5483    3.7837 H   0  0  0  0  0  0  0  0  0  0  0  0
  204.7098  148.5805    3.2283 H   0  0  0  0  0  0  0  0  0  0  0  0
  203.3414  150.4577   -0.7435 H   0  0  0  0  0  0  0  0  0  0  0  0
  201.2878  144.2292    2.1746 H   0  0  0  0  0  0  0  0  0  0  0  0
  200.5427  143.2751    0.9506 H   0  0  0  0  0  0  0  0  0  0  0  0
  201.7720  144.7315   -0.6081 H   0  0  0  0  0  0  0  0  0  0  0  0
  203.4977  143.1702    1.3252 H   0  0  0  0  0  0  0  0  0  0  0  0
  204.1582  143.8782   -1.4646 H   0  0  0  0  0  0  0  0  0  0  0  0
  205.7904  145.5292   -0.5485 H   0  0  0  0  0  0  0  0  0  0  0  0
  203.4808  146.4410   -0.9668 H   0  0  0  0  0  0  0  0  0  0  0  0
  205.1672  145.8912    1.6807 H   0  0  0  0  0  0  0  0  0  0  0  0
  202.3480  142.4013   -1.0735 H   0  0  0  0  0  0  0  0  0  0  0  0
  200.4166  146.0868    1.2206 H   0  0  0  0  0  0  0  0  0  0  0  0
  209.8031  144.5797    0.4674 H   0  0  0  0  0  0  0  0  0  0  0  0
  209.3929  144.1585    1.9448 H   0  0  0  0  0  0  0  0  0  0  0  0
  207.2220  143.2174    1.2616 H   0  0  0  0  0  0  0  0  0  0  0  0
  209.6377  142.0693   -0.1405 H   0  0  0  0  0  0  0  0  0  0  0  0
  207.0219  140.6749    0.5910 H   0  0  0  0  0  0  0  0  0  0  0  0
  206.3958  140.7184   -1.6849 H   0  0  0  0  0  0  0  0  0  0  0  0
  206.2174  143.2216   -2.1151 H   0  0  0  0  0  0  0  0  0  0  0  0
  208.5501  142.3822   -2.3593 H   0  0  0  0  0  0  0  0  0  0  0  0
  208.8428  139.7999   -1.2492 H   0  0  0  0  0  0  0  0  0  0  0  0
  209.4380  140.5550    1.4573 H   0  0  0  0  0  0  0  0  0  0  0  0
  207.3574  145.4798    1.3029 H   0  0  0  0  0  0  0  0  0  0  0  0
  209.8203  154.2988    1.7113 H   0  0  0  0  0  0  0  0  0  0  0  0
  210.9762  154.3757    0.5288 H   0  0  0  0  0  0  0  0  0  0  0  0
  209.4127  152.6791   -0.6508 H   0  0  0  0  0  0  0  0  0  0  0  0
  209.2559  154.8012   -1.5542 H   0  0  0  0  0  0  0  0  0  0  0  0
  206.9859  155.2113   -2.0338 H   0  0  0  0  0  0  0  0  0  0  0  0
  207.5974  152.7298   -2.0462 H   0  0  0  0  0  0  0  0  0  0  0  0
  207.0198  151.2883   -0.2152 H   0  0  0  0  0  0  0  0  0  0  0  0
  204.9328  153.0620   -1.3126 H   0  0  0  0  0  0  0  0  0  0  0  0
  207.9913  155.9263    0.5670 H   0  0  0  0  0  0  0  0  0  0  0  0
  201.2552  154.3160   -2.3996 H   0  0  0  0  0  0  0  0  0  0  0  0
  202.2371  153.0989   -1.5305 H   0  0  0  0  0  0  0  0  0  0  0  0
  203.0522  156.0087   -1.9853 H   0  0  0  0  0  0  0  0  0  0  0  0
  202.1151  154.7498    0.5770 H   0  0  0  0  0  0  0  0  0  0  0  0
  202.9495  157.6027   -0.0358 H   0  0  0  0  0  0  0  0  0  0  0  0
  205.0257  157.1859    1.1025 H   0  0  0  0  0  0  0  0  0  0  0  0
  205.2012  156.5099   -1.1446 H   0  0  0  0  0  0  0  0  0  0  0  0
  203.7493  155.7060    2.3897 H   0  0  0  0  0  0  0  0  0  0  0  0
  201.3948  157.0261    1.4641 H   0  0  0  0  0  0  0  0  0  0  0  0
  200.3105  155.2404   -0.2671 H   0  0  0  0  0  0  0  0  0  0  0  0
  203.8871  153.4393   -3.0026 H   0  0  0  0  0  0  0  0  0  0  0  0
  214.9637  153.6011    2.1595 H   0  0  0  0  0  0  0  0  0  0  0  0
  213.2195  153.3769    2.4014 H   0  0  0  0  0  0  0  0  0  0  0  0
  214.6006  153.1151   -0.1118 H   0  0  0  0  0  0  0  0  0  0  0  0
  215.0009  151.2721    1.7983 H   0  0  0  0  0  0  0  0  0  0  0  0
  213.3633  149.8648   -0.1704 H   0  0  0  0  0  0  0  0  0  0  0  0
  211.4466  149.8156    1.4163 H   0  0  0  0  0  0  0  0  0  0  0  0
  211.0197  151.4389   -0.0747 H   0  0  0  0  0  0  0  0  0  0  0  0
  211.6974  151.4949    2.9471 H   0  0  0  0  0  0  0  0  0  0  0  0
  213.7969  149.1264    2.3019 H   0  0  0  0  0  0  0  0  0  0  0  0
  215.8492  150.0123    0.2850 H   0  0  0  0  0  0  0  0  0  0  0  0
  213.0009  154.9312    0.7028 H   0  0  0  0  0  0  0  0  0  0  0  0
  1  2  1  0
  1 96  1  6
  1 97  1  0
  1 98  1  0
  2  3  2  0
  2  4  1  0
  5  4  1  0
  5  6  1  0
  5 99  1  6
  6  7  1  0
  6 14  1  0
  6100  1  1
  7  8  1  0
  7 89  1  0
  7101  1  6
  8  9  1  0
  8 12  1  0
  8102  1  1
  9 10  1  0
 10 11  1  0
 10  5  1  0
 10103  1  6
 11104  1  0
 12 13  1  0
 12105  1  1
 12106  1  0
 13107  1  0
 14108  1  0
 15 16  1  0
 15109  1  1
 15110  1  0
 15111  1  0
 16 17  2  0
 16 18  1  0
 19 18  1  0
 19 20  1  0
 19112  1  1
 20 21  1  0
 20 27  1  0
 20113  1  6
 21 90  1  0
 21114  1  0
 23 22  1  1
 22115  1  0
 23 24  1  0
 23 19  1  0
 23 89  1  0
 24116  1  0
 25 26  1  0
 25117  1  6
 25118  1  0
 25119  1  0
 26120  1  0
 27121  1  0
 28122  1  1
 28123  1  0
 29 28  1  0
 29 30  1  0
 29124  1  6
 30 31  1  0
 30 36  1  0
 30125  1  6
 31 32  1  0
 31 91  1  0
 31126  1  1
 32 33  1  0
 32 35  1  0
 32127  1  6
 33 34  1  0
 33 90  1  0
 33128  1  1
 34 29  1  0
 35129  1  0
 36130  1  0
 37 46  1  0
 37131  1  1
 37132  1  0
 38 37  1  0
 38 39  1  0
 38133  1  6
 39 40  1  0
 39 45  1  0
 39134  1  1
 40 41  1  0
 40 92  1  0
 40135  1  1
 41 42  1  0
 41 44  1  0
 41136  1  6
 42 43  1  0
 42 91  1  0
 42137  1  6
 43 38  1  0
 44138  1  0
 45139  1  0
 46140  1  0
 47 57  1  0
 47141  1  6
 47142  1  0
 48 47  1  0
 48 49  1  0
 48143  1  1
 49 50  1  0
 49 56  1  0
 49144  1  6
 50 51  1  0
 50 55  1  0
 50145  1  1
 51 52  1  0
 51 54  1  0
 51146  1  6
 52 53  1  0
 52 92  1  0
 52147  1  1
 53 48  1  0
 54148  1  0
 55149  1  0
 56150  1  0
 57151  1  0
 58152  1  1
 58153  1  0
 59 58  1  0
 59 60  1  0
 59154  1  6
 60 61  1  0
 60 66  1  0
 60155  1  1
 61 62  1  0
 61 94  1  0
 61156  1  1
 62 63  1  0
 62 65  1  0
 62157  1  6
 63 64  1  0
 63 93  1  0
 63158  1  1
 64 59  1  0
 65159  1  0
 66160  1  0
 67 77  1  0
 67161  1  6
 67162  1  0
 68 67  1  0
 68 69  1  0
 68163  1  6
 69 70  1  0
 69 76  1  0
 69164  1  1
 70 71  1  0
 70 75  1  0
 70165  1  6
 71 72  1  0
 71 74  1  0
 71166  1  1
 72 73  1  0
 72 94  1  0
 72167  1  6
 73 68  1  0
 74168  1  0
 75169  1  0
 76170  1  0
 77171  1  0
 78 88  1  0
 78172  1  1
 78173  1  0
 79 78  1  0
 79 80  1  0
 79174  1  6
 80 81  1  0
 80 87  1  0
 80175  1  1
 81 82  1  0
 81 86  1  0
 81176  1  6
 82 83  1  0
 82 85  1  0
 82177  1  1
 83 84  1  0
 83 95  1  0
 83178  1  6
 84 79  1  0
 85179  1  0
 86180  1  0
 87181  1  0
 88182  1  0
 93 28  1  0
 95 58  1  0
M  RAD  3   4   2  18   2  21   2
M  END
>  <step>  (1) 
0

>  <phase>  (1) 
compression

$$$$
chair_1C4_beta_rank1_Q0.795_theta174.7_phi45.0_E15.2
     RDKit          3D

182187  0  0  0  0  0  0  0  0999 V2000
  189.1915  149.9785    0.7304 C   0  0  2  0  0  0  0  0  0  0  0  0
  190.4175  149.0898    0.8731 C   0  0  0  0  0  0  0  0  0  0  0  0
  190.5141  148.0336    0.3660 O   0  0  0  0  0  0  0  0  0  0  0  0
  191.3193  149.6245    1.6133 N   0  0  0  0  0  2  0  0  0  0  0  0
  192.5212  150.0616    0.9453 C   0  0  2  0  0  0  0  0  0  0  0  0
  193.8154  149.9844    1.7558 C   0  0  2  0  0  0  0  0  0  0  0  0
  195.0269  150.4130    0.9779 C   0  0  1  0  0  0  0  0  0  0  0  0
  194.7321  151.6892    0.2754 C   0  0  2  0  0  0  0  0  0  0  0  0
  193.4640  151.8191   -0.3584 O   0  0  0  0  0  0  0  0  0  0  0  0
  192.3737  151.4969    0.3964 C   0  0  2  0  0  0  0  0  0  0  0  0
  192.2423  152.4538    1.4233 O   0  0  0  0  0  0  0  0  0  0  0  0
  195.7414  151.8039   -0.8810 C   0  0  2  0  0  0  0  0  0  0  0  0
  195.9364  150.5795   -1.6111 O   0  0  0  0  0  0  0  0  0  0  0  0
  194.0543  148.6017    2.1442 O   0  0  0  0  0  0  0  0  0  0  0  0
  197.4070  154.3001    1.0585 C   0  0  2  0  0  0  0  0  0  0  0  0
  198.6999  153.4908    1.0273 C   0  0  0  0  0  0  0  0  0  0  0  0
  199.6539  153.8968    1.5475 O   0  0  0  0  0  0  0  0  0  0  0  0
  198.5877  152.3831    0.3517 N   0  0  0  0  0  2  0  0  0  0  0  0
  198.7335  151.0495    1.0069 C   0  0  2  0  0  0  0  0  0  0  0  0
  199.8150  150.1822    0.3301 C   0  0  2  0  0  0  0  0  0  0  0  0
  200.4907  149.2651    1.1862 C   0  0  0  0  0  3  0  0  0  0  0  0
  197.7492  149.0841    2.1472 O   0  0  0  0  0  0  0  0  0  0  0  0
  197.4508  150.0496    1.2314 C   0  0  2  0  0  0  0  0  0  0  0  0
  197.3059  149.2045    0.2038 O   0  0  0  0  0  0  0  0  0  0  0  0
  199.2308  146.2001    1.0759 C   0  0  2  0  0  0  0  0  0  0  0  0
  200.3611  146.9767    1.4424 O   0  0  0  0  0  0  0  0  0  0  0  0
  200.8874  150.9686   -0.1753 O   0  0  0  0  0  0  0  0  0  0  0  0
  205.8875  150.9621    2.0089 C   0  0  2  0  0  0  0  0  0  0  0  0
  204.5434  150.6515    1.3283 C   0  0  1  0  0  0  0  0  0  0  0  0
  204.6978  149.4812    0.3674 C   0  0  1  0  0  0  0  0  0  0  0  0
  203.6376  148.3655    0.3807 C   0  0  2  0  0  0  0  0  0  0  0  0
  203.0201  148.2920    1.6569 C   0  0  2  0  0  0  0  0  0  0  0  0
  202.5550  149.5932    2.2949 C   0  0  1  0  0  0  0  0  0  0  0  0
  203.3933  150.7205    2.0857 O   0  0  0  0  0  0  0  0  0  0  0  0
  203.9410  147.7329    2.6313 O   0  0  0  0  0  0  0  0  0  0  0  0
  204.7503  150.0175   -0.9448 O   0  0  0  0  0  0  0  0  0  0  0  0
  200.5062  144.2564    0.8566 C   0  0  2  0  0  0  0  0  0  0  0  0
  202.0371  144.3820    0.6836 C   0  0  2  0  0  0  0  0  0  0  0  0
  202.8659  143.2193    1.2989 C   0  0  2  0  0  0  0  0  0  0  0  0
  204.3919  143.5389    1.0487 C   0  0  1  0  0  0  0  0  0  0  0  0
  204.9030  144.9672    0.7371 C   0  0  1  0  0  0  0  0  0  0  0  0
  203.7634  145.8686    0.3630 C   0  0  1  0  0  0  0  0  0  0  0  0
  202.6176  145.6389    1.0875 O   0  0  0  0  0  0  0  0  0  0  0  0
  205.7167  145.6072    1.6549 O   0  0  0  0  0  0  0  0  0  0  0  0
  202.5876  142.0745    0.4457 O   0  0  0  0  0  0  0  0  0  0  0  0
  199.8749  145.3901    0.3577 O   0  0  0  0  0  0  0  0  0  0  0  0
  209.3842  144.5278    1.0468 C   0  0  2  0  0  0  0  0  0  0  0  0
  208.4564  143.2961    1.3281 C   0  0  2  0  0  0  0  0  0  0  0  0
  209.1733  141.9581    1.0576 C   0  0  2  0  0  0  0  0  0  0  0  0
  208.2311  140.8550    1.5278 C   0  0  1  0  0  0  0  0  0  0  0  0
  206.9495  140.9098    0.7436 C   0  0  1  0  0  0  0  0  0  0  0  0
  206.3404  142.3154    0.6470 C   0  0  2  0  0  0  0  0  0  0  0  0
  207.3331  143.3336    0.4210 O   0  0  0  0  0  0  0  0  0  0  0  0
  207.3140  140.5540   -0.5369 O   0  0  0  0  0  0  0  0  0  0  0  0
  208.8845  139.5814    1.3833 O   0  0  0  0  0  0  0  0  0  0  0  0
  210.4585  141.8183    1.5652 O   0  0  0  0  0  0  0  0  0  0  0  0
  208.6794  145.7613    1.2194 O   0  0  0  0  0  0  0  0  0  0  0  0
  210.9557  153.8522    1.3173 C   0  0  2  0  0  0  0  0  0  0  0  0
  209.4322  153.7898    1.0579 C   0  0  2  0  0  0  0  0  0  0  0  0
  208.7482  155.1851    0.9184 C   0  0  1  0  0  0  0  0  0  0  0  0
  207.2462  155.1249    0.5867 C   0  0  1  0  0  0  0  0  0  0  0  0
  206.9895  153.7219    0.1391 C   0  0  1  0  0  0  0  0  0  0  0  0
  207.4150  152.5620    1.0134 C   0  0  1  0  0  0  0  0  0  0  0  0
  208.6454  152.8155    1.6548 O   0  0  0  0  0  0  0  0  0  0  0  0
  205.6182  153.5651   -0.1655 O   0  0  0  0  0  0  0  0  0  0  0  0
  209.0764  156.2487    1.7153 O   0  0  0  0  0  0  0  0  0  0  0  0
  202.2323  153.7112    0.5430 C   0  0  2  0  0  0  0  0  0  0  0  0
  202.9006  155.0592    0.4098 C   0  0  1  0  0  0  0  0  0  0  0  0
  202.0659  156.2007    1.0132 C   0  0  1  0  0  0  0  0  0  0  0  0
  202.9829  157.4569    0.9692 C   0  0  2  0  0  0  0  0  0  0  0  0
  204.3254  157.1418    1.6315 C   0  0  2  0  0  0  0  0  0  0  0  0
  205.0464  156.0164    0.9452 C   0  0  2  0  0  0  0  0  0  0  0  0
  204.1555  154.8945    1.1026 O   0  0  0  0  0  0  0  0  0  0  0  0
  204.0339  156.6236    2.9944 O   0  0  0  0  0  0  0  0  0  0  0  0
  202.2916  158.5707    1.5208 O   0  0  0  0  0  0  0  0  0  0  0  0
  200.8873  156.4557    0.3427 O   0  0  0  0  0  0  0  0  0  0  0  0
  202.9739  152.7673   -0.1102 O   0  0  0  0  0  0  0  0  0  0  0  0
  214.4052  153.9050    1.0843 C   0  0  2  0  0  0  0  0  0  0  0  0
  214.2341  152.6478    0.2764 C   0  0  1  0  0  0  0  0  0  0  0  0
  214.7434  151.3536    0.8709 C   0  0  1  0  0  0  0  0  0  0  0  0
  213.8422  150.1276    0.6049 C   0  0  2  0  0  0  0  0  0  0  0  0
  212.3281  150.3956    0.7612 C   0  0  2  0  0  0  0  0  0  0  0  0
  211.9287  151.8653    0.4442 C   0  0  2  0  0  0  0  0  0  0  0  0
  212.9052  152.5021   -0.2836 O   0  0  0  0  0  0  0  0  0  0  0  0
  211.8060  149.9179    1.9300 O   0  0  0  0  0  0  0  0  0  0  0  0
  214.2681  149.0365    1.4560 O   0  0  0  0  0  0  0  0  0  0  0  0
  216.0451  151.0348    0.3495 O   0  0  0  0  0  0  0  0  0  0  0  0
  214.3084  155.1086    0.3519 O   0  0  0  0  0  0  0  0  0  0  0  0
  196.2388  150.6013    1.6669 O   0  0  0  0  0  0  0  0  0  0  0  0
  201.1336  149.8423    2.1832 O   0  0  0  0  0  0  0  0  0  0  0  0
  204.3985  147.1517    0.2885 O   0  0  0  0  0  0  0  0  0  0  0  0
  205.3795  142.6713    1.5733 O   0  0  0  0  0  0  0  0  0  0  0  0
  206.3392  152.3378    1.8581 O   0  0  0  0  0  0  0  0  0  0  0  0
  206.3231  155.6483    1.5269 O   0  0  0  0  0  0  0  0  0  0  0  0
  211.6203  152.6184    1.5533 O   0  0  0  0  0  0  0  0  0  0  0  0
  188.4216  149.4578    0.2661 H   0  0  0  0  0  0  0  0  0  0  0  0
  189.4185  150.8538    0.2407 H   0  0  0  0  0  0  0  0  0  0  0  0
  188.7926  150.2599    1.6292 H   0  0  0  0  0  0  0  0  0  0  0  0
  192.7030  149.4283    0.1593 H   0  0  0  0  0  0  0  0  0  0  0  0
  193.7647  150.5612    2.6990 H   0  0  0  0  0  0  0  0  0  0  0  0
  195.1337  149.5729    0.4055 H   0  0  0  0  0  0  0  0  0  0  0  0
  194.8710  152.5688    0.7794 H   0  0  0  0  0  0  0  0  0  0  0  0
  191.5009  151.5896   -0.1890 H   0  0  0  0  0  0  0  0  0  0  0  0
  191.3093  152.4220    1.5913 H   0  0  0  0  0  0  0  0  0  0  0  0
  196.6696  152.0287   -0.3879 H   0  0  0  0  0  0  0  0  0  0  0  0
  195.5423  152.5812   -1.5807 H   0  0  0  0  0  0  0  0  0  0  0  0
  196.4647  149.9919   -1.0398 H   0  0  0  0  0  0  0  0  0  0  0  0
  193.5228  148.0866    1.4952 H   0  0  0  0  0  0  0  0  0  0  0  0
  196.7005  153.7883    1.6135 H   0  0  0  0  0  0  0  0  0  0  0  0
  197.0019  154.5851    0.1882 H   0  0  0  0  0  0  0  0  0  0  0  0
  197.6517  155.2195    1.5151 H   0  0  0  0  0  0  0  0  0  0  0  0
  199.0893  151.3145    1.9321 H   0  0  0  0  0  0  0  0  0  0  0  0
  199.4553  149.6447   -0.5795 H   0  0  0  0  0  0  0  0  0  0  0  0
  200.0143  148.3253    1.5183 H   0  0  0  0  0  0  0  0  0  0  0  0
  196.8530  148.7254    2.2773 H   0  0  0  0  0  0  0  0  0  0  0  0
  197.7640  148.3895    0.4951 H   0  0  0  0  0  0  0  0  0  0  0  0
  198.8984  146.4420    0.1561 H   0  0  0  0  0  0  0  0  0  0  0  0
  198.4681  146.3679    1.7486 H   0  0  0  0  0  0  0  0  0  0  0  0
  199.4837  145.1247    1.0931 H   0  0  0  0  0  0  0  0  0  0  0  0
  200.1703  147.8174    1.2752 H   0  0  0  0  0  0  0  0  0  0  0  0
  200.8489  151.7390    0.4422 H   0  0  0  0  0  0  0  0  0  0  0  0
  206.6900  150.3114    1.6538 H   0  0  0  0  0  0  0  0  0  0  0  0
  205.7469  150.7973    3.0815 H   0  0  0  0  0  0  0  0  0  0  0  0
  204.4722  151.5370    0.7005 H   0  0  0  0  0  0  0  0  0  0  0  0
  205.6765  149.0341    0.5138 H   0  0  0  0  0  0  0  0  0  0  0  0
  202.9684  148.4637   -0.4198 H   0  0  0  0  0  0  0  0  0  0  0  0
  202.1800  147.6142    1.6019 H   0  0  0  0  0  0  0  0  0  0  0  0
  202.6452  149.4245    3.3800 H   0  0  0  0  0  0  0  0  0  0  0  0
  204.7099  147.3596    2.1652 H   0  0  0  0  0  0  0  0  0  0  0  0
  203.9790  150.5842   -1.0557 H   0  0  0  0  0  0  0  0  0  0  0  0
  200.1120  144.1160    1.7846 H   0  0  0  0  0  0  0  0  0  0  0  0
  200.1694  143.4156    0.3500 H   0  0  0  0  0  0  0  0  0  0  0  0
  202.1121  144.3744   -0.3189 H   0  0  0  0  0  0  0  0  0  0  0  0
  202.6082  142.9103    2.2641 H   0  0  0  0  0  0  0  0  0  0  0  0
  204.3672  143.2306    0.1187 H   0  0  0  0  0  0  0  0  0  0  0  0
  205.5748  144.8730   -0.0064 H   0  0  0  0  0  0  0  0  0  0  0  0
  203.5267  145.6072   -0.6793 H   0  0  0  0  0  0  0  0  0  0  0  0
  206.1185  146.4430    1.2705 H   0  0  0  0  0  0  0  0  0  0  0  0
  201.7252  141.7364    0.7129 H   0  0  0  0  0  0  0  0  0  0  0  0
  200.2334  146.1209    0.6467 H   0  0  0  0  0  0  0  0  0  0  0  0
  209.8057  144.5660    0.1299 H   0  0  0  0  0  0  0  0  0  0  0  0
  210.1864  144.5638    1.6953 H   0  0  0  0  0  0  0  0  0  0  0  0
  208.0580  143.4121    2.2681 H   0  0  0  0  0  0  0  0  0  0  0  0
  209.3370  141.8433    0.0767 H   0  0  0  0  0  0  0  0  0  0  0  0
  208.0475  140.9369    2.6231 H   0  0  0  0  0  0  0  0  0  0  0  0
  206.2425  140.1494    1.0653 H   0  0  0  0  0  0  0  0  0  0  0  0
  205.7835  142.2220   -0.1978 H   0  0  0  0  0  0  0  0  0  0  0  0
  207.6610  141.3499   -0.9769 H   0  0  0  0  0  0  0  0  0  0  0  0
  208.6390  139.3404    0.5516 H   0  0  0  0  0  0  0  0  0  0  0  0
  210.7045  140.8794    1.4238 H   0  0  0  0  0  0  0  0  0  0  0  0
  207.6573  145.4773    1.3086 H   0  0  0  0  0  0  0  0  0  0  0  0
  211.2802  154.6583    1.9073 H   0  0  0  0  0  0  0  0  0  0  0  0
  211.3337  154.1759    0.4308 H   0  0  0  0  0  0  0  0  0  0  0  0
  209.4204  153.3929    0.1485 H   0  0  0  0  0  0  0  0  0  0  0  0
  209.1790  155.4832    0.0734 H   0  0  0  0  0  0  0  0  0  0  0  0
  207.1777  155.8345   -0.1159 H   0  0  0  0  0  0  0  0  0  0  0  0
  207.5272  153.6719   -0.8198 H   0  0  0  0  0  0  0  0  0  0  0  0
  207.5622  151.6945    0.4563 H   0  0  0  0  0  0  0  0  0  0  0  0
  205.1971  153.5876    0.7162 H   0  0  0  0  0  0  0  0  0  0  0  0
  208.4225  156.9520    1.5895 H   0  0  0  0  0  0  0  0  0  0  0  0
  201.2851  153.7350    0.1466 H   0  0  0  0  0  0  0  0  0  0  0  0
  202.1438  153.3673    1.5050 H   0  0  0  0  0  0  0  0  0  0  0  0
  203.1184  155.2042   -0.5804 H   0  0  0  0  0  0  0  0  0  0  0  0
  201.7389  156.0078    1.9822 H   0  0  0  0  0  0  0  0  0  0  0  0
  203.1737  157.7536    0.0190 H   0  0  0  0  0  0  0  0  0  0  0  0
  204.9512  158.0128    1.7868 H   0  0  0  0  0  0  0  0  0  0  0  0
  205.2133  156.2568   -0.0180 H   0  0  0  0  0  0  0  0  0  0  0  0
  203.8799  155.6670    2.9422 H   0  0  0  0  0  0  0  0  0  0  0  0
  201.4388  158.4396    1.3614 H   0  0  0  0  0  0  0  0  0  0  0  0
  200.2475  155.6894    0.5466 H   0  0  0  0  0  0  0  0  0  0  0  0
  203.8746  153.0888   -0.0958 H   0  0  0  0  0  0  0  0  0  0  0  0
  215.4001  153.9246    1.4430 H   0  0  0  0  0  0  0  0  0  0  0  0
  213.7275  153.9732    1.8631 H   0  0  0  0  0  0  0  0  0  0  0  0
  214.8405  152.8726   -0.6439 H   0  0  0  0  0  0  0  0  0  0  0  0
  214.9586  151.5100    1.8679 H   0  0  0  0  0  0  0  0  0  0  0  0
  214.0501  149.7680   -0.3308 H   0  0  0  0  0  0  0  0  0  0  0  0
  211.8777  149.7624    0.0930 H   0  0  0  0  0  0  0  0  0  0  0  0
  210.9925  151.7772   -0.0286 H   0  0  0  0  0  0  0  0  0  0  0  0
  211.1585  150.6354    2.3282 H   0  0  0  0  0  0  0  0  0  0  0  0
  213.4958  148.4363    1.4862 H   0  0  0  0  0  0  0  0  0  0  0  0
  216.2379  150.1930    0.6405 H   0  0  0  0  0  0  0  0  0  0  0  0
  213.3315  155.4733    0.4886 H   0  0  0  0  0  0  0  0  0  0  0  0
  1  2  1  0
  1 96  1  6
  1 97  1  0
  1 98  1  0
  2  3  2  0
  2  4  1  0
  5  4  1  0
  5  6  1  0
  5 99  1  6
  6  7  1  0
  6 14  1  0
  6100  1  1
  7  8  1  0
  7 89  1  0
  7101  1  6
  8  9  1  0
  8 12  1  0
  8102  1  1
  9 10  1  0
 10 11  1  0
 10  5  1  0
 10103  1  6
 11104  1  0
 12 13  1  0
 12105  1  1
 12106  1  0
 13107  1  0
 14108  1  0
 15 16  1  0
 15109  1  1
 15110  1  0
 15111  1  0
 16 17  2  0
 16 18  1  0
 19 18  1  0
 19 20  1  0
 19112  1  1
 20 21  1  0
 20 27  1  0
 20113  1  6
 21 90  1  0
 21114  1  0
 23 22  1  1
 22115  1  0
 23 24  1  0
 23 19  1  0
 23 89  1  0
 24116  1  0
 25 26  1  0
 25117  1  6
 25118  1  0
 25119  1  0
 26120  1  0
 27121  1  0
 28122  1  6
 28123  1  0
 29 28  1  0
 29 30  1  0
 29124  1  6
 30 31  1  0
 30 36  1  0
 30125  1  1
 31 32  1  0
 31 91  1  0
 31126  1  1
 32 33  1  0
 32 35  1  0
 32127  1  6
 33 34  1  0
 33 90  1  0
 33128  1  1
 34 29  1  0
 35129  1  0
 36130  1  0
 37 46  1  0
 37131  1  1
 37132  1  0
 38 37  1  0
 38 39  1  0
 38133  1  6
 39 40  1  0
 39 45  1  0
 39134  1  1
 40 41  1  0
 40 92  1  0
 40135  1  1
 41 42  1  0
 41 44  1  0
 41136  1  6
 42 43  1  0
 42 91  1  0
 42137  1  6
 43 38  1  0
 44138  1  0
 45139  1  0
 46140  1  0
 47 57  1  0
 47141  1  6
 47142  1  0
 48 47  1  0
 48 49  1  0
 48143  1  1
 49 50  1  0
 49 56  1  0
 49144  1  6
 50 51  1  0
 50 55  1  0
 50145  1  1
 51 52  1  0
 51 54  1  0
 51146  1  1
 52 53  1  0
 52 92  1  0
 52147  1  1
 53 48  1  0
 54148  1  0
 55149  1  0
 56150  1  0
 57151  1  0
 58152  1  1
 58153  1  0
 59 58  1  0
 59 60  1  0
 59154  1  6
 60 61  1  0
 60 66  1  0
 60155  1  1
 61 62  1  0
 61 94  1  0
 61156  1  1
 62 63  1  0
 62 65  1  0
 62157  1  6
 63 64  1  0
 63 93  1  0
 63158  1  1
 64 59  1  0
 65159  1  0
 66160  1  0
 67 77  1  0
 67161  1  6
 67162  1  0
 68 67  1  0
 68 69  1  0
 68163  1  6
 69 70  1  0
 69 76  1  0
 69164  1  1
 70 71  1  0
 70 75  1  0
 70165  1  6
 71 72  1  0
 71 74  1  0
 71166  1  1
 72 73  1  0
 72 94  1  0
 72167  1  6
 73 68  1  0
 74168  1  0
 75169  1  0
 76170  1  0
 77171  1  0
 78 88  1  0
 78172  1  1
 78173  1  0
 79 78  1  0
 79 80  1  0
 79174  1  6
 80 81  1  0
 80 87  1  0
 80175  1  1
 81 82  1  0
 81 86  1  0
 81176  1  6
 82 83  1  0
 82 85  1  0
 82177  1  6
 83 84  1  0
 83 95  1  0
 83178  1  6
 84 79  1  0
 85179  1  0
 86180  1  0
 87181  1  0
 88182  1  0
 93 28  1  0
 95 58  1  0
M  RAD  3   4   2  18   2  21   2
M  END
>  <step>  (1) 
50

>  <phase>  (1) 
compression

$$$$
chair_1C4_beta_rank1_Q0.795_theta174.7_phi45.0_E15.2
     RDKit          3D

182187  0  0  0  0  0  0  0  0999 V2000
  189.0287  149.4063    0.6421 C   0  0  2  0  0  0  0  0  0  0  0  0
  190.2772  148.7427    0.9548 C   0  0  0  0  0  0  0  0  0  0  0  0
  190.3296  147.1774    0.3290 O   0  0  0  0  0  0  0  0  0  0  0  0
  191.0712  149.0695    1.7896 N   0  0  0  0  0  2  0  0  0  0  0  0
  192.2443  149.8316    0.9858 C   0  0  2  0  0  0  0  0  0  0  0  0
  193.6973  149.5331    1.6699 C   0  0  2  0  0  0  0  0  0  0  0  0
  194.8215  150.4614    0.9435 C   0  0  1  0  0  0  0  0  0  0  0  0
  194.0851  151.9007    0.9671 C   0  0  2  0  0  0  0  0  0  0  0  0
  192.9352  152.0220   -0.0786 O   0  0  0  0  0  0  0  0  0  0  0  0
  191.8323  151.3825    0.7361 C   0  0  2  0  0  0  0  0  0  0  0  0
  191.4401  152.3424    1.7440 O   0  0  0  0  0  0  0  0  0  0  0  0
  195.1653  152.9445    0.6034 C   0  0  2  0  0  0  0  0  0  0  0  0
  195.8534  152.4972   -0.5717 O   0  0  0  0  0  0  0  0  0  0  0  0
  193.9747  148.1285    1.2206 O   0  0  0  0  0  0  0  0  0  0  0  0
  197.6561  154.8024    1.0880 C   0  0  2  0  0  0  0  0  0  0  0  0
  198.6582  153.6154    0.8866 C   0  0  0  0  0  0  0  0  0  0  0  0
  199.7105  153.5974    1.4002 O   0  0  0  0  0  0  0  0  0  0  0  0
  198.0288  152.4096    0.2767 N   0  0  0  0  0  2  0  0  0  0  0  0
  198.4475  151.1204    1.0474 C   0  0  2  0  0  0  0  0  0  0  0  0
  199.6739  150.5329    0.2284 C   0  0  2  0  0  0  0  0  0  0  0  0
  200.5708  149.4601    1.0166 C   0  0  0  0  0  3  0  0  0  0  0  0
  197.5980  148.8870    2.0508 O   0  0  0  0  0  0  0  0  0  0  0  0
  197.2068  149.9972    1.1241 C   0  0  2  0  0  0  0  0  0  0  0  0
  197.0829  149.2242   -0.1568 O   0  0  0  0  0  0  0  0  0  0  0  0
  199.5403  146.0292    1.2116 C   0  0  2  0  0  0  0  0  0  0  0  0
  200.6861  146.9095    1.3589 O   0  0  0  0  0  0  0  0  0  0  0  0
  200.6256  151.6149    0.0969 O   0  0  0  0  0  0  0  0  0  0  0  0
  206.4410  150.4943    1.4368 C   0  0  2  0  0  0  0  0  0  0  0  0
  204.9940  150.4025    0.8932 C   0  0  1  0  0  0  0  0  0  0  0  0
  204.9553  149.0765    0.1467 C   0  0  1  0  0  0  0  0  0  0  0  0
  203.7827  148.1078    0.2777 C   0  0  2  0  0  0  0  0  0  0  0  0
  203.1292  148.2786    1.6415 C   0  0  2  0  0  0  0  0  0  0  0  0
  202.8669  149.7321    1.7667 C   0  0  1  0  0  0  0  0  0  0  0  0
  203.7358  150.7948    1.4833 O   0  0  0  0  0  0  0  0  0  0  0  0
  204.0946  147.8039    2.6464 O   0  0  0  0  0  0  0  0  0  0  0  0
  204.7261  149.6118   -1.1535 O   0  0  0  0  0  0  0  0  0  0  0  0
  200.4247  144.0331    0.8886 C   0  0  2  0  0  0  0  0  0  0  0  0
  201.9588  144.2235    0.9105 C   0  0  2  0  0  0  0  0  0  0  0  0
  202.8547  142.9357    1.3258 C   0  0  2  0  0  0  0  0  0  0  0  0
  204.4349  143.2271    1.1933 C   0  0  1  0  0  0  0  0  0  0  0  0
  204.9252  144.6917    1.0247 C   0  0  1  0  0  0  0  0  0  0  0  0
  203.7448  145.6196    0.5217 C   0  0  1  0  0  0  0  0  0  0  0  0
  202.5306  145.4935    1.4870 O   0  0  0  0  0  0  0  0  0  0  0  0
  205.9747  145.4827    1.7835 O   0  0  0  0  0  0  0  0  0  0  0  0
  202.5482  141.8940    0.2931 O   0  0  0  0  0  0  0  0  0  0  0  0
  199.9015  145.2248    0.2944 O   0  0  0  0  0  0  0  0  0  0  0  0
  209.1819  144.7579    0.6859 C   0  0  2  0  0  0  0  0  0  0  0  0
  208.3485  143.4636    0.9575 C   0  0  2  0  0  0  0  0  0  0  0  0
  209.3800  142.2632    0.8978 C   0  0  2  0  0  0  0  0  0  0  0  0
  208.7237  140.9856    1.6754 C   0  0  1  0  0  0  0  0  0  0  0  0
  207.1926  140.7415    1.2667 C   0  0  1  0  0  0  0  0  0  0  0  0
  206.3818  141.9944    0.8107 C   0  0  2  0  0  0  0  0  0  0  0  0
  207.2087  143.0344    0.0303 O   0  0  0  0  0  0  0  0  0  0  0  0
  207.2854  139.7117    0.2026 O   0  0  0  0  0  0  0  0  0  0  0  0
  209.5493  139.8191    1.1417 O   0  0  0  0  0  0  0  0  0  0  0  0
  210.7090  142.5122    1.5363 O   0  0  0  0  0  0  0  0  0  0  0  0
  208.3010  145.8166    0.3350 O   0  0  0  0  0  0  0  0  0  0  0  0
  211.0906  154.0844    1.2732 C   0  0  2  0  0  0  0  0  0  0  0  0
  209.5629  153.8964    1.2063 C   0  0  2  0  0  0  0  0  0  0  0  0
  208.8088  155.2557    1.2321 C   0  0  1  0  0  0  0  0  0  0  0  0
  207.2887  155.2510    1.1090 C   0  0  1  0  0  0  0  0  0  0  0  0
  206.8832  153.7750    0.5963 C   0  0  1  0  0  0  0  0  0  0  0  0
  207.6504  152.4609    1.0849 C   0  0  1  0  0  0  0  0  0  0  0  0
  208.9022  152.7175    1.8152 O   0  0  0  0  0  0  0  0  0  0  0  0
  205.4870  153.5579    0.4425 O   0  0  0  0  0  0  0  0  0  0  0  0
  209.3424  156.5507    1.5987 O   0  0  0  0  0  0  0  0  0  0  0  0
  202.1934  153.9693    0.8598 C   0  0  2  0  0  0  0  0  0  0  0  0
  203.0312  155.2486    0.7799 C   0  0  1  0  0  0  0  0  0  0  0  0
  202.1237  156.5580    1.1349 C   0  0  1  0  0  0  0  0  0  0  0  0
  203.0087  157.8402    0.8629 C   0  0  2  0  0  0  0  0  0  0  0  0
  204.4994  157.6456    1.4614 C   0  0  2  0  0  0  0  0  0  0  0  0
  205.1457  156.1879    1.0518 C   0  0  2  0  0  0  0  0  0  0  0  0
  204.1742  155.2628    1.8285 O   0  0  0  0  0  0  0  0  0  0  0  0
  204.3781  157.6178    2.9945 O   0  0  0  0  0  0  0  0  0  0  0  0
  202.2811  158.9695    1.4976 O   0  0  0  0  0  0  0  0  0  0  0  0
  200.9646  156.7642    0.2281 O   0  0  0  0  0  0  0  0  0  0  0  0
  203.0604  152.9997    0.1981 O   0  0  0  0  0  0  0  0  0  0  0  0
  214.6966  154.0359    1.1442 C   0  0  2  0  0  0  0  0  0  0  0  0
  214.4083  152.7463    0.2268 C   0  0  1  0  0  0  0  0  0  0  0  0
  214.9754  151.4564    1.0374 C   0  0  1  0  0  0  0  0  0  0  0  0
  213.9877  150.2286    1.0197 C   0  0  2  0  0  0  0  0  0  0  0  0
  212.4573  150.4957    1.0732 C   0  0  2  0  0  0  0  0  0  0  0  0
  211.9815  152.0592    0.7565 C   0  0  2  0  0  0  0  0  0  0  0  0
  213.0065  152.6979   -0.2869 O   0  0  0  0  0  0  0  0  0  0  0  0
  211.4902  149.5800    1.7430 O   0  0  0  0  0  0  0  0  0  0  0  0
  214.4069  148.9878    1.7072 O   0  0  0  0  0  0  0  0  0  0  0  0
  216.1933  150.9059    0.3458 O   0  0  0  0  0  0  0  0  0  0  0  0
  214.6829  155.2003    0.3053 O   0  0  0  0  0  0  0  0  0  0  0  0
  196.0756  150.5953    1.9049 O   0  0  0  0  0  0  0  0  0  0  0  0
  201.3855  150.0119    1.8042 O   0  0  0  0  0  0  0  0  0  0  0  0
  204.4567  146.8292    0.3362 O   0  0  0  0  0  0  0  0  0  0  0  0
  205.4293  142.4567    1.9894 O   0  0  0  0  0  0  0  0  0  0  0  0
  206.7592  151.7470    2.0033 O   0  0  0  0  0  0  0  0  0  0  0  0
  206.4456  156.1540    1.9154 O   0  0  0  0  0  0  0  0  0  0  0  0
  211.6730  152.9231    1.9225 O   0  0  0  0  0  0  0  0  0  0  0  0
  188.2256  148.7948    0.1808 H   0  0  0  0  0  0  0  0  0  0  0  0
  189.2322  150.3856    0.1309 H   0  0  0  0  0  0  0  0  0  0  0  0
  188.6323  149.6764    1.6315 H   0  0  0  0  0  0  0  0  0  0  0  0
  192.3540  149.3561   -0.0323 H   0  0  0  0  0  0  0  0  0  0  0  0
  193.6981  149.5905    2.7813 H   0  0  0  0  0  0  0  0  0  0  0  0
  195.0032  149.9301   -0.0599 H   0  0  0  0  0  0  0  0  0  0  0  0
  193.8361  152.1949    2.0526 H   0  0  0  0  0  0  0  0  0  0  0  0
  191.0182  151.2555    0.0046 H   0  0  0  0  0  0  0  0  0  0  0  0
  191.4585  153.0045    1.0629 H   0  0  0  0  0  0  0  0  0  0  0  0
  195.7873  152.9981    1.6101 H   0  0  0  0  0  0  0  0  0  0  0  0
  194.6616  153.9090    0.4995 H   0  0  0  0  0  0  0  0  0  0  0  0
  196.5184  152.0200   -0.0609 H   0  0  0  0  0  0  0  0  0  0  0  0
  193.0985  147.7037    1.3241 H   0  0  0  0  0  0  0  0  0  0  0  0
  196.9128  154.4839    1.8112 H   0  0  0  0  0  0  0  0  0  0  0  0
  197.2594  155.1452    0.1405 H   0  0  0  0  0  0  0  0  0  0  0  0
  198.3691  155.5268    1.5256 H   0  0  0  0  0  0  0  0  0  0  0  0
  198.7407  151.3985    2.0519 H   0  0  0  0  0  0  0  0  0  0  0  0
  199.3516  149.9708   -0.7379 H   0  0  0  0  0  0  0  0  0  0  0  0
  200.1596  148.4967    1.1606 H   0  0  0  0  0  0  0  0  0  0  0  0
  196.8653  148.4293    1.6561 H   0  0  0  0  0  0  0  0  0  0  0  0
  197.8112  148.6969    0.1036 H   0  0  0  0  0  0  0  0  0  0  0  0
  199.3592  145.8860    0.1725 H   0  0  0  0  0  0  0  0  0  0  0  0
  198.6580  146.5382    1.6168 H   0  0  0  0  0  0  0  0  0  0  0  0
  199.7822  145.0356    1.6208 H   0  0  0  0  0  0  0  0  0  0  0  0
  200.4103  147.7755    1.1039 H   0  0  0  0  0  0  0  0  0  0  0  0
  200.3171  152.3636    0.6674 H   0  0  0  0  0  0  0  0  0  0  0  0
  207.1443  150.1617    0.4929 H   0  0  0  0  0  0  0  0  0  0  0  0
  206.6036  149.7523    2.1997 H   0  0  0  0  0  0  0  0  0  0  0  0
  205.0497  151.2543    0.2289 H   0  0  0  0  0  0  0  0  0  0  0  0
  205.9707  148.5147    0.3794 H   0  0  0  0  0  0  0  0  0  0  0  0
  202.9982  148.1339   -0.5576 H   0  0  0  0  0  0  0  0  0  0  0  0
  202.2079  147.6742    1.5558 H   0  0  0  0  0  0  0  0  0  0  0  0
  202.9439  149.8208    2.8185 H   0  0  0  0  0  0  0  0  0  0  0  0
  204.6000  147.2210    2.0809 H   0  0  0  0  0  0  0  0  0  0  0  0
  203.9397  150.1864   -0.9116 H   0  0  0  0  0  0  0  0  0  0  0  0
  199.9308  143.8487    1.8849 H   0  0  0  0  0  0  0  0  0  0  0  0
  200.2458  143.1587    0.2252 H   0  0  0  0  0  0  0  0  0  0  0  0
  202.1137  144.2760   -0.1727 H   0  0  0  0  0  0  0  0  0  0  0  0
  202.6053  142.4787    2.2728 H   0  0  0  0  0  0  0  0  0  0  0  0
  204.4699  142.9571    0.0710 H   0  0  0  0  0  0  0  0  0  0  0  0
  205.4168  144.5234    0.0042 H   0  0  0  0  0  0  0  0  0  0  0  0
  203.4218  145.4009   -0.5518 H   0  0  0  0  0  0  0  0  0  0  0  0
  205.9193  146.2340    1.1652 H   0  0  0  0  0  0  0  0  0  0  0  0
  201.7295  141.5016    0.5901 H   0  0  0  0  0  0  0  0  0  0  0  0
  200.1904  145.9805    0.8505 H   0  0  0  0  0  0  0  0  0  0  0  0
  210.1221  144.6755    0.0751 H   0  0  0  0  0  0  0  0  0  0  0  0
  209.5361  145.0210    1.6950 H   0  0  0  0  0  0  0  0  0  0  0  0
  207.9491  143.6742    1.9742 H   0  0  0  0  0  0  0  0  0  0  0  0
  209.5810  141.9240   -0.1053 H   0  0  0  0  0  0  0  0  0  0  0  0
  208.8125  141.0133    2.8253 H   0  0  0  0  0  0  0  0  0  0  0  0
  206.5666  140.2796    2.0800 H   0  0  0  0  0  0  0  0  0  0  0  0
  205.8014  141.5148   -0.0297 H   0  0  0  0  0  0  0  0  0  0  0  0
  207.8612  140.0331   -0.4611 H   0  0  0  0  0  0  0  0  0  0  0  0
  208.9550  139.0849    1.0991 H   0  0  0  0  0  0  0  0  0  0  0  0
  211.1283  141.6521    1.5019 H   0  0  0  0  0  0  0  0  0  0  0  0
  207.6188  145.7666    1.0282 H   0  0  0  0  0  0  0  0  0  0  0  0
  211.4147  155.0109    1.7820 H   0  0  0  0  0  0  0  0  0  0  0  0
  211.3531  154.3320    0.1592 H   0  0  0  0  0  0  0  0  0  0  0  0
  209.5141  153.7049    0.1150 H   0  0  0  0  0  0  0  0  0  0  0  0
  208.9683  155.3379    0.1459 H   0  0  0  0  0  0  0  0  0  0  0  0
  207.2324  155.6510    0.0439 H   0  0  0  0  0  0  0  0  0  0  0  0
  207.2159  153.8449   -0.4622 H   0  0  0  0  0  0  0  0  0  0  0  0
  207.8984  151.8835    0.0215 H   0  0  0  0  0  0  0  0  0  0  0  0
  205.0016  153.7710    1.2444 H   0  0  0  0  0  0  0  0  0  0  0  0
  208.5984  157.1612    1.5103 H   0  0  0  0  0  0  0  0  0  0  0  0
  201.3778  154.2262    0.1044 H   0  0  0  0  0  0  0  0  0  0  0  0
  201.8674  153.6152    1.8645 H   0  0  0  0  0  0  0  0  0  0  0  0
  203.4164  155.3512   -0.2852 H   0  0  0  0  0  0  0  0  0  0  0  0
  201.6981  156.4442    2.1254 H   0  0  0  0  0  0  0  0  0  0  0  0
  203.1399  158.0994   -0.1961 H   0  0  0  0  0  0  0  0  0  0  0  0
  205.1371  158.4547    1.0396 H   0  0  0  0  0  0  0  0  0  0  0  0
  205.1866  156.0911   -0.0327 H   0  0  0  0  0  0  0  0  0  0  0  0
  203.9346  156.7704    3.0032 H   0  0  0  0  0  0  0  0  0  0  0  0
  201.3942  158.7666    1.1842 H   0  0  0  0  0  0  0  0  0  0  0  0
  200.3658  156.0449    0.4995 H   0  0  0  0  0  0  0  0  0  0  0  0
  203.6260  152.7189    0.9550 H   0  0  0  0  0  0  0  0  0  0  0  0
  215.7164  153.9331    1.5472 H   0  0  0  0  0  0  0  0  0  0  0  0
  213.8949  154.1381    1.8368 H   0  0  0  0  0  0  0  0  0  0  0  0
  215.0081  152.9104   -0.6601 H   0  0  0  0  0  0  0  0  0  0  0  0
  215.2926  151.7723    2.0099 H   0  0  0  0  0  0  0  0  0  0  0  0
  214.0348  149.9786   -0.0578 H   0  0  0  0  0  0  0  0  0  0  0  0
  212.3629  150.1667    0.0198 H   0  0  0  0  0  0  0  0  0  0  0  0
  211.0078  151.8227    0.1447 H   0  0  0  0  0  0  0  0  0  0  0  0
  210.6359  149.9955    1.4772 H   0  0  0  0  0  0  0  0  0  0  0  0
  213.5989  148.4832    1.4819 H   0  0  0  0  0  0  0  0  0  0  0  0
  216.2650  150.0602    0.8012 H   0  0  0  0  0  0  0  0  0  0  0  0
  213.7926  155.5734    0.4469 H   0  0  0  0  0  0  0  0  0  0  0  0
  1  2  1  0
  1 96  1  6
  1 97  1  0
  1 98  1  0
  2  3  2  0
  2  4  1  0
  5  4  1  0
  5  6  1  0
  5 99  1  6
  6  7  1  0
  6 14  1  0
  6100  1  1
  7  8  1  0
  7 89  1  0
  7101  1  6
  8  9  1  0
  8 12  1  0
  8102  1  1
  9 10  1  0
 10 11  1  0
 10  5  1  0
 10103  1  6
 11104  1  0
 12 13  1  0
 12105  1  1
 12106  1  0
 13107  1  0
 14108  1  0
 15 16  1  0
 15109  1  1
 15110  1  0
 15111  1  0
 16 17  2  0
 16 18  1  0
 19 18  1  0
 19 20  1  0
 19112  1  1
 20 21  1  0
 20 27  1  0
 20113  1  6
 21 90  1  0
 21114  1  0
 23 22  1  1
 22115  1  0
 23 24  1  0
 23 19  1  0
 23 89  1  0
 24116  1  0
 25 26  1  0
 25117  1  6
 25118  1  0
 25119  1  0
 26120  1  0
 27121  1  0
 28122  1  6
 28123  1  0
 29 28  1  0
 29 30  1  0
 29124  1  6
 30 31  1  0
 30 36  1  0
 30125  1  6
 31 32  1  0
 31 91  1  0
 31126  1  1
 32 33  1  0
 32 35  1  0
 32127  1  6
 33 34  1  0
 33 90  1  0
 33128  1  1
 34 29  1  0
 35129  1  0
 36130  1  0
 37 46  1  0
 37131  1  1
 37132  1  0
 38 37  1  0
 38 39  1  0
 38133  1  6
 39 40  1  0
 39 45  1  0
 39134  1  1
 40 41  1  0
 40 92  1  0
 40135  1  1
 41 42  1  0
 41 44  1  0
 41136  1  6
 42 43  1  0
 42 91  1  0
 42137  1  6
 43 38  1  0
 44138  1  0
 45139  1  0
 46140  1  0
 47 57  1  0
 47141  1  6
 47142  1  0
 48 47  1  0
 48 49  1  0
 48143  1  1
 49 50  1  0
 49 56  1  0
 49144  1  6
 50 51  1  0
 50 55  1  0
 50145  1  1
 51 52  1  0
 51 54  1  0
 51146  1  1
 52 53  1  0
 52 92  1  0
 52147  1  1
 53 48  1  0
 54148  1  0
 55149  1  0
 56150  1  0
 57151  1  0
 58152  1  1
 58153  1  0
 59 58  1  0
 59 60  1  0
 59154  1  6
 60 61  1  0
 60 66  1  0
 60155  1  1
 61 62  1  0
 61 94  1  0
 61156  1  1
 62 63  1  0
 62 65  1  0
 62157  1  6
 63 64  1  0
 63 93  1  0
 63158  1  1
 64 59  1  0
 65159  1  0
 66160  1  0
 67 77  1  0
 67161  1  6
 67162  1  0
 68 67  1  0
 68 69  1  0
 68163  1  6
 69 70  1  0
 69 76  1  0
 69164  1  1
 70 71  1  0
 70 75  1  0
 70165  1  6
 71 72  1  0
 71 74  1  0
 71166  1  1
 72 73  1  0
 72 94  1  0
 72167  1  6
 73 68  1  0
 74168  1  0
 75169  1  0
 76170  1  0
 77171  1  0
 78 88  1  0
 78172  1  1
 78173  1  0
 79 78  1  0
 79 80  1  0
 79174  1  6
 80 81  1  0
 80 87  1  0
 80175  1  1
 81 82  1  0
 81 86  1  0
 81176  1  6
 82 83  1  0
 82 85  1  0
 82177  1  6
 83 84  1  0
 83 95  1  0
 83178  1  6
 84 79  1  0
 85179  1  0
 86180  1  0
 87181  1  0
 88182  1  0
 93 28  1  0
 95 58  1  0
M  RAD  3   4   2  18   2  21   2
M  END
>  <step>  (1) 
0

>  <phase>  (1) 
final

>  <energy>  (1) 
1443.6107

$$$$
