chair_1C4_beta_rank1_Q0.795_theta174.7_phi45.0_E15.2
     RDKit          3D

182187  0  0  0  0  0  0  0  0999 V2000
  189.0244  149.4361    0.5660 C   0  0  2  0  0  0  0  0  0  0  0  0
  190.2871  148.5694    0.6867 C   0  0  0  0  0  0  0  0  0  0  0  0
  190.2977  147.3891    0.4822 O   0  0  0  0  0  0  0  0  0  0  0  0
  191.1904  149.1807    1.4854 N   0  0  0  0  0  2  0  0  0  0  0  0
  192.2686  149.9225    1.1557 C   0  0  2  0  0  0  0  0  0  0  0  0
  193.6561  149.5450    1.4783 C   0  0  2  0  0  0  0  0  0  0  0  0
  194.6888  150.4864    1.1396 C   0  0  1  0  0  0  0  0  0  0  0  0
  194.2401  151.8193    0.8050 C   0  0  2  0  0  0  0  0  0  0  0  0
  193.0286  152.0424    0.3965 O   0  0  0  0  0  0  0  0  0  0  0  0
  192.0151  151.2521    0.6284 C   0  0  2  0  0  0  0  0  0  0  0  0
  191.4481  152.1952    1.4566 O   0  0  0  0  0  0  0  0  0  0  0  0
  195.1031  152.9381    0.7595 C   0  0  2  0  0  0  0  0  0  0  0  0
  195.7862  152.4135   -0.2212 O   0  0  0  0  0  0  0  0  0  0  0  0
  193.9590  148.1465    1.1970 O   0  0  0  0  0  0  0  0  0  0  0  0
  197.8341  154.6729    1.0949 C   0  0  2  0  0  0  0  0  0  0  0  0
  198.5767  153.4284    0.9833 C   0  0  0  0  0  0  0  0  0  0  0  0
  199.7871  153.6403    1.2224 O   0  0  0  0  0  0  0  0  0  0  0  0
  197.9368  152.4463    0.3967 N   0  0  0  0  0  2  0  0  0  0  0  0
  198.3467  151.1127    0.8117 C   0  0  2  0  0  0  0  0  0  0  0  0
  199.6606  150.5754    0.3738 C   0  0  2  0  0  0  0  0  0  0  0  0
  200.4899  149.4189    0.7904 C   0  0  0  0  0  3  0  0  0  0  0  0
  197.6601  148.9278    1.5397 O   0  0  0  0  0  0  0  0  0  0  0  0
  197.2979  150.1984    1.2369 C   0  0  2  0  0  0  0  0  0  0  0  0
  197.0908  149.2829    0.3815 O   0  0  0  0  0  0  0  0  0  0  0  0
  199.5372  146.0483    1.3599 C   0  0  2  0  0  0  0  0  0  0  0  0
  200.7532  146.8858    1.3261 O   0  0  0  0  0  0  0  0  0  0  0  0
  200.6246  151.5614    0.4133 O   0  0  0  0  0  0  0  0  0  0  0  0
  206.4430  150.5356    1.2600 C   0  0  2  0  0  0  0  0  0  0  0  0
  204.9850  150.4439    1.0166 C   0  0  1  0  0  0  0  0  0  0  0  0
  205.0099  149.0558    0.3659 C   0  0  1  0  0  0  0  0  0  0  0  0
  203.9022  148.0749    0.3673 C   0  0  2  0  0  0  0  0  0  0  0  0
  203.0565  148.2727    1.4916 C   0  0  2  0  0  0  0  0  0  0  0  0
  202.7828  149.7696    1.5207 C   0  0  1  0  0  0  0  0  0  0  0  0
  203.7084  150.8130    1.3732 O   0  0  0  0  0  0  0  0  0  0  0  0
  204.0893  147.8335    2.2364 O   0  0  0  0  0  0  0  0  0  0  0  0
  204.7557  149.5585   -0.8155 O   0  0  0  0  0  0  0  0  0  0  0  0
  200.5783  144.0829    0.7363 C   0  0  2  0  0  0  0  0  0  0  0  0
  202.0374  144.2107    1.1124 C   0  0  2  0  0  0  0  0  0  0  0  0
  202.9208  142.9867    1.0910 C   0  0  2  0  0  0  0  0  0  0  0  0
  204.3620  143.3528    1.3010 C   0  0  1  0  0  0  0  0  0  0  0  0
  204.7382  144.7528    1.0125 C   0  0  1  0  0  0  0  0  0  0  0  0
  203.7168  145.7311    0.6523 C   0  0  1  0  0  0  0  0  0  0  0  0
  202.5554  145.5062    1.2900 O   0  0  0  0  0  0  0  0  0  0  0  0
  205.8561  145.3649    1.4097 O   0  0  0  0  0  0  0  0  0  0  0  0
  202.6403  141.7863    0.3461 O   0  0  0  0  0  0  0  0  0  0  0  0
  199.8236  145.2250    0.3666 O   0  0  0  0  0  0  0  0  0  0  0  0
  209.1058  144.6972    0.6434 C   0  0  2  0  0  0  0  0  0  0  0  0
  208.4314  143.3622    0.8297 C   0  0  2  0  0  0  0  0  0  0  0  0
  209.3499  142.2576    1.1261 C   0  0  2  0  0  0  0  0  0  0  0  0
  208.7195  140.9831    1.5252 C   0  0  1  0  0  0  0  0  0  0  0  0
  207.3042  140.8354    1.2520 C   0  0  1  0  0  0  0  0  0  0  0  0
  206.5258  142.0634    0.8225 C   0  0  2  0  0  0  0  0  0  0  0  0
  207.2084  143.1263    0.3286 O   0  0  0  0  0  0  0  0  0  0  0  0
  207.2674  139.6595    0.3864 O   0  0  0  0  0  0  0  0  0  0  0  0
  209.5453  139.8139    1.1672 O   0  0  0  0  0  0  0  0  0  0  0  0
  210.6636  142.5043    1.3429 O   0  0  0  0  0  0  0  0  0  0  0  0
  208.3112  145.8480    0.3689 O   0  0  0  0  0  0  0  0  0  0  0  0
  211.0084  154.0718    1.2379 C   0  0  2  0  0  0  0  0  0  0  0  0
  209.4776  153.9731    1.3399 C   0  0  2  0  0  0  0  0  0  0  0  0
  208.7227  155.2341    1.3247 C   0  0  1  0  0  0  0  0  0  0  0  0
  207.2020  155.0224    1.1428 C   0  0  1  0  0  0  0  0  0  0  0  0
  206.7258  153.7208    0.7318 C   0  0  1  0  0  0  0  0  0  0  0  0
  207.6049  152.5806    0.9335 C   0  0  1  0  0  0  0  0  0  0  0  0
  208.8839  152.7563    1.4271 O   0  0  0  0  0  0  0  0  0  0  0  0
  205.4560  153.5311    0.3684 O   0  0  0  0  0  0  0  0  0  0  0  0
  209.3528  156.4661    1.3154 O   0  0  0  0  0  0  0  0  0  0  0  0
  202.2482  154.0858    0.7819 C   0  0  2  0  0  0  0  0  0  0  0  0
  202.9681  155.3245    0.9457 C   0  0  1  0  0  0  0  0  0  0  0  0
  202.2012  156.5811    0.9489 C   0  0  1  0  0  0  0  0  0  0  0  0
  203.0540  157.7571    1.1122 C   0  0  2  0  0  0  0  0  0  0  0  0
  204.4986  157.6326    1.2887 C   0  0  2  0  0  0  0  0  0  0  0  0
  205.0428  156.2593    1.3453 C   0  0  2  0  0  0  0  0  0  0  0  0
  204.2366  155.1362    1.4740 O   0  0  0  0  0  0  0  0  0  0  0  0
  204.3811  157.6033    2.5468 O   0  0  0  0  0  0  0  0  0  0  0  0
  202.3005  158.9378    1.3355 O   0  0  0  0  0  0  0  0  0  0  0  0
  200.9147  156.8503    0.3936 O   0  0  0  0  0  0  0  0  0  0  0  0
  202.9901  152.9055    0.3961 O   0  0  0  0  0  0  0  0  0  0  0  0
  214.7970  153.9582    1.0438 C   0  0  2  0  0  0  0  0  0  0  0  0
  214.3387  152.6799    0.3532 C   0  0  1  0  0  0  0  0  0  0  0  0
  214.8760  151.4147    0.8073 C   0  0  1  0  0  0  0  0  0  0  0  0
  213.9043  150.3934    1.1278 C   0  0  2  0  0  0  0  0  0  0  0  0
  212.4791  150.6992    1.1744 C   0  0  2  0  0  0  0  0  0  0  0  0
  211.9718  151.9057    0.6225 C   0  0  2  0  0  0  0  0  0  0  0  0
  212.9775  152.6424    0.2428 O   0  0  0  0  0  0  0  0  0  0  0  0
  211.5948  149.6614    1.3895 O   0  0  0  0  0  0  0  0  0  0  0  0
  214.3874  149.0795    1.3510 O   0  0  0  0  0  0  0  0  0  0  0  0
  216.2021  151.0150    0.5066 O   0  0  0  0  0  0  0  0  0  0  0  0
  214.6960  155.2898    0.3871 O   0  0  0  0  0  0  0  0  0  0  0  0
  196.0065  150.5599    1.4235 O   0  0  0  0  0  0  0  0  0  0  0  0
  201.4718  150.0469    1.5322 O   0  0  0  0  0  0  0  0  0  0  0  0
  204.5111  146.8650    0.4268 O   0  0  0  0  0  0  0  0  0  0  0  0
  205.3969  142.4438    1.4751 O   0  0  0  0  0  0  0  0  0  0  0  0
  206.7680  151.7898    1.5399 O   0  0  0  0  0  0  0  0  0  0  0  0
  206.3688  156.0458    1.4465 O   0  0  0  0  0  0  0  0  0  0  0  0
  211.7520  152.9049    1.4484 O   0  0  0  0  0  0  0  0  0  0  0  0
  188.2227  148.7217    0.3317 H   0  0  0  0  0  0  0  0  0  0  0  0
  189.3135  150.3921    0.3190 H   0  0  0  0  0  0  0  0  0  0  0  0
  188.6319  149.7036    1.4511 H   0  0  0  0  0  0  0  0  0  0  0  0
  192.3326  149.3751    0.3600 H   0  0  0  0  0  0  0  0  0  0  0  0
  193.6708  149.6204    2.3827 H   0  0  0  0  0  0  0  0  0  0  0  0
  195.0273  149.9282    0.2832 H   0  0  0  0  0  0  0  0  0  0  0  0
  193.9103  152.2183    1.5604 H   0  0  0  0  0  0  0  0  0  0  0  0
  190.9818  151.3086    0.3512 H   0  0  0  0  0  0  0  0  0  0  0  0
  191.4545  153.1042    1.0018 H   0  0  0  0  0  0  0  0  0  0  0  0
  195.8510  152.9671    1.5029 H   0  0  0  0  0  0  0  0  0  0  0  0
  194.6481  153.8485    0.5314 H   0  0  0  0  0  0  0  0  0  0  0  0
  196.6006  151.8965    0.0985 H   0  0  0  0  0  0  0  0  0  0  0  0
  193.1395  147.7272    1.3258 H   0  0  0  0  0  0  0  0  0  0  0  0
  196.9275  154.4423    1.5524 H   0  0  0  0  0  0  0  0  0  0  0  0
  197.1804  155.1452    0.3760 H   0  0  0  0  0  0  0  0  0  0  0  0
  198.3924  155.5706    1.4728 H   0  0  0  0  0  0  0  0  0  0  0  0
  198.7473  151.3995    1.6711 H   0  0  0  0  0  0  0  0  0  0  0  0
  199.4270  150.0098   -0.2977 H   0  0  0  0  0  0  0  0  0  0  0  0
  200.1679  148.5003    1.1576 H   0  0  0  0  0  0  0  0  0  0  0  0
  196.8104  148.4090    1.4720 H   0  0  0  0  0  0  0  0  0  0  0  0
  197.8329  148.6626    0.3554 H   0  0  0  0  0  0  0  0  0  0  0  0
  199.3343  145.8645    0.3625 H   0  0  0  0  0  0  0  0  0  0  0  0
  198.6114  146.5828    1.4700 H   0  0  0  0  0  0  0  0  0  0  0  0
  199.8167  144.9729    1.4684 H   0  0  0  0  0  0  0  0  0  0  0  0
  200.3835  147.8197    1.0975 H   0  0  0  0  0  0  0  0  0  0  0  0
  200.2959  152.3049    0.7029 H   0  0  0  0  0  0  0  0  0  0  0  0
  207.1231  150.1018    0.5791 H   0  0  0  0  0  0  0  0  0  0  0  0
  206.5023  149.7863    1.9053 H   0  0  0  0  0  0  0  0  0  0  0  0
  205.0550  151.2918    0.3925 H   0  0  0  0  0  0  0  0  0  0  0  0
  205.8727  148.5914    0.4678 H   0  0  0  0  0  0  0  0  0  0  0  0
  203.0400  148.1381   -0.1070 H   0  0  0  0  0  0  0  0  0  0  0  0
  202.1807  147.6651    1.4145 H   0  0  0  0  0  0  0  0  0  0  0  0
  203.0024  149.8416    2.5620 H   0  0  0  0  0  0  0  0  0  0  0  0
  204.6256  147.1553    1.7738 H   0  0  0  0  0  0  0  0  0  0  0  0
  203.9681  150.1544   -0.6588 H   0  0  0  0  0  0  0  0  0  0  0  0
  199.9221  143.8511    1.6294 H   0  0  0  0  0  0  0  0  0  0  0  0
  200.2239  143.1472    0.3619 H   0  0  0  0  0  0  0  0  0  0  0  0
  202.1044  144.2732    0.1588 H   0  0  0  0  0  0  0  0  0  0  0  0
  202.6197  142.5369    1.8846 H   0  0  0  0  0  0  0  0  0  0  0  0
  204.4328  142.9092    0.3638 H   0  0  0  0  0  0  0  0  0  0  0  0
  205.5122  144.5225    0.3594 H   0  0  0  0  0  0  0  0  0  0  0  0
  203.4353  145.4299   -0.1789 H   0  0  0  0  0  0  0  0  0  0  0  0
  205.8840  146.3266    1.1653 H   0  0  0  0  0  0  0  0  0  0  0  0
  201.6517  141.5218    0.6457 H   0  0  0  0  0  0  0  0  0  0  0  0
  200.1972  145.9576    0.8485 H   0  0  0  0  0  0  0  0  0  0  0  0
  210.1336  144.6164    0.3148 H   0  0  0  0  0  0  0  0  0  0  0  0
  209.5719  145.0340    1.5496 H   0  0  0  0  0  0  0  0  0  0  0  0
  207.9519  143.6127    1.5979 H   0  0  0  0  0  0  0  0  0  0  0  0
  209.5835  141.9453    0.2602 H   0  0  0  0  0  0  0  0  0  0  0  0
  208.7843  141.0216    2.4106 H   0  0  0  0  0  0  0  0  0  0  0  0
  206.5902  140.2769    1.6781 H   0  0  0  0  0  0  0  0  0  0  0  0
  205.7799  141.5455    0.3677 H   0  0  0  0  0  0  0  0  0  0  0  0
  207.7809  140.1188   -0.1525 H   0  0  0  0  0  0  0  0  0  0  0  0
  208.9649  139.1243    1.0968 H   0  0  0  0  0  0  0  0  0  0  0  0
  211.0442  141.6925    1.4665 H   0  0  0  0  0  0  0  0  0  0  0  0
  207.5599  145.7858    1.0950 H   0  0  0  0  0  0  0  0  0  0  0  0
  211.4114  155.0207    1.5814 H   0  0  0  0  0  0  0  0  0  0  0  0
  211.4010  154.3481    0.3052 H   0  0  0  0  0  0  0  0  0  0  0  0
  209.5218  153.6251    0.3423 H   0  0  0  0  0  0  0  0  0  0  0  0
  209.0752  155.4432    0.3554 H   0  0  0  0  0  0  0  0  0  0  0  0
  207.2246  155.7537    0.2923 H   0  0  0  0  0  0  0  0  0  0  0  0
  207.1961  153.7978   -0.0985 H   0  0  0  0  0  0  0  0  0  0  0  0
  207.9211  151.8518    0.3036 H   0  0  0  0  0  0  0  0  0  0  0  0
  205.0503  153.7824    1.3060 H   0  0  0  0  0  0  0  0  0  0  0  0
  208.6188  157.0878    1.4814 H   0  0  0  0  0  0  0  0  0  0  0  0
  201.3278  154.2756    0.3335 H   0  0  0  0  0  0  0  0  0  0  0  0
  201.9063  153.6187    1.5523 H   0  0  0  0  0  0  0  0  0  0  0  0
  203.3976  155.3261    0.1397 H   0  0  0  0  0  0  0  0  0  0  0  0
  201.7025  156.4211    1.7487 H   0  0  0  0  0  0  0  0  0  0  0  0
  203.1176  158.0863    0.2285 H   0  0  0  0  0  0  0  0  0  0  0  0
  205.1017  158.4602    1.0520 H   0  0  0  0  0  0  0  0  0  0  0  0
  205.2498  156.0679    0.2891 H   0  0  0  0  0  0  0  0  0  0  0  0
  203.9199  156.6846    2.7629 H   0  0  0  0  0  0  0  0  0  0  0  0
  201.4166  158.7295    1.1677 H   0  0  0  0  0  0  0  0  0  0  0  0
  200.4284  156.0139    0.5593 H   0  0  0  0  0  0  0  0  0  0  0  0
  203.7505  152.7422    1.0006 H   0  0  0  0  0  0  0  0  0  0  0  0
  215.7421  153.9194    1.4638 H   0  0  0  0  0  0  0  0  0  0  0  0
  213.8424  154.1209    1.5338 H   0  0  0  0  0  0  0  0  0  0  0  0
  214.9899  152.9265   -0.3021 H   0  0  0  0  0  0  0  0  0  0  0  0
  215.2984  151.7202    1.6210 H   0  0  0  0  0  0  0  0  0  0  0  0
  214.0830  149.8944    0.3150 H   0  0  0  0  0  0  0  0  0  0  0  0
  212.3041  150.0467    0.3215 H   0  0  0  0  0  0  0  0  0  0  0  0
  210.9737  151.7843    0.3317 H   0  0  0  0  0  0  0  0  0  0  0  0
  210.7052  150.0124    1.4306 H   0  0  0  0  0  0  0  0  0  0  0  0
  213.5808  148.5251    1.4424 H   0  0  0  0  0  0  0  0  0  0  0  0
  216.2252  150.0313    0.8276 H   0  0  0  0  0  0  0  0  0  0  0  0
  213.7725  155.5331    0.5022 H   0  0  0  0  0  0  0  0  0  0  0  0
  1  2  1  0
  1 96  1  6
  1 97  1  0
  1 98  1  0
  2  3  2  0
  2  4  1  0
  5  4  1  0
  5  6  1  0
  5 99  1  6
  6  7  1  0
  6 14  1  0
  6100  1  1
  7  8  1  0
  7 89  1  0
  7101  1  6
  8  9  1  0
  8 12  1  0
  8102  1  1
  9 10  1  0
 10 11  1  0
 10  5  1  0
 10103  1  6
 11104  1  0
 12 13  1  0
 12105  1  1
 12106  1  0
 13107  1  0
 14108  1  0
 15 16  1  0
 15109  1  1
 15110  1  0
 15111  1  0
 16 17  2  0
 16 18  1  0
 19 18  1  0
 19 20  1  0
 19112  1  1
 20 21  1  0
 20 27  1  0
 20113  1  6
 21 90  1  0
 21114  1  0
 23 22  1  1
 22115  1  0
 23 24  1  0
 23 19  1  0
 23 89  1  0
 24116  1  0
 25 26  1  0
 25117  1  6
 25118  1  0
 25119  1  0
 26120  1  0
 27121  1  0
 28122  1  6
 28123  1  0
 29 28  1  0
 29 30  1  0
 29124  1  6
 30 31  1  0
 30 36  1  0
 30125  1  6
 31 32  1  0
 31 91  1  0
 31126  1  1
 32 33  1  0
 32 35  1  0
 32127  1  6
 33 34  1  0
 33 90  1  0
 33128  1  1
 34 29  1  0
 35129  1  0
 36130  1  0
 37 46  1  0
 37131  1  1
 37132  1  0
 38 37  1  0
 38 39  1  0
 38133  1  6
 39 40  1  0
 39 45  1  0
 39134  1  1
 40 41  1  0
 40 92  1  0
 40135  1  1
 41 42  1  0
 41 44  1  0
 41136  1  6
 42 43  1  0
 42 91  1  0
 42137  1  6
 43 38  1  0
 44138  1  0
 45139  1  0
 46140  1  0
 47 57  1  0
 47141  1  6
 47142  1  0
 48 47  1  0
 48 49  1  0
 48143  1  1
 49 50  1  0
 49 56  1  0
 49144  1  6
 50 51  1  0
 50 55  1  0
 50145  1  1
 51 52  1  0
 51 54  1  0
 51146  1  1
 52 53  1  0
 52 92  1  0
 52147  1  1
 53 48  1  0
 54148  1  0
 55149  1  0
 56150  1  0
 57151  1  0
 58152  1  1
 58153  1  0
 59 58  1  0
 59 60  1  0
 59154  1  6
 60 61  1  0
 60 66  1  0
 60155  1  1
 61 62  1  0
 61 94  1  0
 61156  1  1
 62 63  1  0
 62 65  1  0
 62157  1  6
 63 64  1  0
 63 93  1  0
 63158  1  1
 64 59  1  0
 65159  1  0
 66160  1  0
 67 77  1  0
 67161  1  6
 67162  1  0
 68 67  1  0
 68 69  1  0
 68163  1  6
 69 70  1  0
 69 76  1  0
 69164  1  1
 70 71  1  0
 70 75  1  0
 70165  1  6
 71 72  1  0
 71 74  1  0
 71166  1  1
 72 73  1  0
 72 94  1  0
 72167  1  6
 73 68  1  0
 74168  1  0
 75169  1  0
 76170  1  0
 77171  1  0
 78 88  1  0
 78172  1  1
 78173  1  0
 79 78  1  0
 79 80  1  0
 79174  1  6
 80 81  1  0
 80 87  1  0
 80175  1  1
 81 82  1  0
 81 86  1  0
 81176  1  6
 82 83  1  0
 82 85  1  0
 82177  1  6
 83 84  1  0
 83 95  1  0
 83178  1  6
 84 79  1  0
 85179  1  0
 86180  1  0
 87181  1  0
 88182  1  0
 93 28  1  0
 95 58  1  0
M  RAD  3   4   2  18   2  21   2
M  END
$$$$
