chair_1C4_beta_rank1_Q0.795_theta174.7_phi45.0_E15.2
     RDKit          3D

182187  0  0  0  0  0  0  0  0999 V2000
  190.0059  150.3375    2.8158 C   0  0  2  0  0  0  0  0  0  0  0  0
  190.8386  149.8976    1.6400 C   0  0  0  0  0  0  0  0  0  0  0  0
  190.4102  149.0735    0.8333 O   0  0  0  0  0  0  0  0  0  0  0  0
  192.0196  150.5171    1.6433 N   0  0  0  0  0  2  0  0  0  0  0  0
  192.8962  150.1637    0.4845 C   0  0  2  0  0  0  0  0  0  0  0  0
  194.3280  150.6413    0.8111 C   0  0  2  0  0  0  0  0  0  0  0  0
  195.2673  150.4443   -0.3787 C   0  0  1  0  0  0  0  0  0  0  0  0
  194.6657  151.1392   -1.6056 C   0  0  2  0  0  0  0  0  0  0  0  0
  193.3566  150.6266   -1.8936 O   0  0  0  0  0  0  0  0  0  0  0  0
  192.4206  150.8178   -0.8349 C   0  0  2  0  0  0  0  0  0  0  0  0
  192.1780  152.2079   -0.6107 O   0  0  0  0  0  0  0  0  0  0  0  0
  195.5385  150.9777   -2.8649 C   0  0  2  0  0  0  0  0  0  0  0  0
  195.9698  149.6333   -3.0979 O   0  0  0  0  0  0  0  0  0  0  0  0
  194.8084  149.8793    1.9402 O   0  0  0  0  0  0  0  0  0  0  0  0
  198.0342  153.7660   -1.7790 C   0  0  2  0  0  0  0  0  0  0  0  0
  199.0640  153.0651   -0.9342 C   0  0  0  0  0  0  0  0  0  0  0  0
  199.7770  153.6890   -0.1521 O   0  0  0  0  0  0  0  0  0  0  0  0
  199.1134  151.7592   -1.1924 N   0  0  0  0  0  2  0  0  0  0  0  0
  198.9748  150.9197    0.0624 C   0  0  2  0  0  0  0  0  0  0  0  0
  200.1930  149.9514    0.1665 C   0  0  2  0  0  0  0  0  0  0  0  0
  200.6007  149.6054    1.5679 C   0  0  0  0  0  3  0  0  0  0  0  0
  197.4879  149.4489    1.3236 O   0  0  0  0  0  0  0  0  0  0  0  0
  197.6208  150.1244    0.0926 C   0  0  2  0  0  0  0  0  0  0  0  0
  197.6224  149.1239   -0.9081 O   0  0  0  0  0  0  0  0  0  0  0  0
  199.3948  146.7182    1.3125 C   0  0  2  0  0  0  0  0  0  0  0  0
  200.0830  147.0452    2.5057 O   0  0  0  0  0  0  0  0  0  0  0  0
  201.3497  150.5425   -0.4749 O   0  0  0  0  0  0  0  0  0  0  0  0
  205.4383  151.8014    1.7155 C   0  0  2  0  0  0  0  0  0  0  0  0
  204.1705  150.9296    1.5795 C   0  0  1  0  0  0  0  0  0  0  0  0
  204.4281  149.7595    0.6020 C   0  0  1  0  0  0  0  0  0  0  0  0
  203.5774  148.4848    0.8063 C   0  0  2  0  0  0  0  0  0  0  0  0
  203.0806  148.3130    2.2515 C   0  0  2  0  0  0  0  0  0  0  0  0
  202.6087  149.6583    2.8364 C   0  0  1  0  0  0  0  0  0  0  0  0
  203.8055  150.4732    2.8943 O   0  0  0  0  0  0  0  0  0  0  0  0
  204.1484  147.7780    3.0799 O   0  0  0  0  0  0  0  0  0  0  0  0
  204.2588  150.1997   -0.7582 O   0  0  0  0  0  0  0  0  0  0  0  0
  200.9838  144.2192    1.2160 C   0  0  2  0  0  0  0  0  0  0  0  0
  202.1678  144.5399    0.2965 C   0  0  2  0  0  0  0  0  0  0  0  0
  203.1967  143.3981    0.3066 C   0  0  2  0  0  0  0  0  0  0  0  0
  204.4488  143.7948   -0.5007 C   0  0  1  0  0  0  0  0  0  0  0  0
  204.9584  145.1668   -0.0366 C   0  0  1  0  0  0  0  0  0  0  0  0
  203.8221  146.2166   -0.0656 C   0  0  1  0  0  0  0  0  0  0  0  0
  202.7405  145.7750    0.7479 O   0  0  0  0  0  0  0  0  0  0  0  0
  205.4827  145.0786    1.3146 O   0  0  0  0  0  0  0  0  0  0  0  0
  202.6201  142.1983   -0.2349 O   0  0  0  0  0  0  0  0  0  0  0  0
  199.9690  145.2092    1.0571 O   0  0  0  0  0  0  0  0  0  0  0  0
  208.9862  144.4458    1.0480 C   0  0  2  0  0  0  0  0  0  0  0  0
  208.0571  143.3298    0.5509 C   0  0  2  0  0  0  0  0  0  0  0  0
  208.7890  141.9899    0.4413 C   0  0  2  0  0  0  0  0  0  0  0  0
  207.8272  140.9348   -0.1208 C   0  0  1  0  0  0  0  0  0  0  0  0
  207.1678  141.4195   -1.4172 C   0  0  1  0  0  0  0  0  0  0  0  0
  206.5329  142.8135   -1.2223 C   0  0  2  0  0  0  0  0  0  0  0  0
  207.5344  143.7128   -0.7389 O   0  0  0  0  0  0  0  0  0  0  0  0
  208.1859  141.4508   -2.4441 O   0  0  0  0  0  0  0  0  0  0  0  0
  208.5808  139.7302   -0.3626 O   0  0  0  0  0  0  0  0  0  0  0  0
  209.2904  141.5504    1.7058 O   0  0  0  0  0  0  0  0  0  0  0  0
  208.2974  145.6938    1.1619 O   0  0  0  0  0  0  0  0  0  0  0  0
  210.2152  153.7209    0.9488 C   0  0  2  0  0  0  0  0  0  0  0  0
  209.0700  153.3915   -0.0258 C   0  0  2  0  0  0  0  0  0  0  0  0
  208.6106  154.6650   -0.7954 C   0  0  1  0  0  0  0  0  0  0  0  0
  207.1320  154.5900   -1.2368 C   0  0  1  0  0  0  0  0  0  0  0  0
  206.8259  153.0978   -1.4715 C   0  0  1  0  0  0  0  0  0  0  0  0
  206.9028  152.3386   -0.1199 C   0  0  1  0  0  0  0  0  0  0  0  0
  207.9943  152.7813    0.7040 O   0  0  0  0  0  0  0  0  0  0  0  0
  205.5815  152.8878   -2.1353 O   0  0  0  0  0  0  0  0  0  0  0  0
  208.8094  155.8594   -0.0244 O   0  0  0  0  0  0  0  0  0  0  0  0
  202.2550  154.0225   -2.1681 C   0  0  2  0  0  0  0  0  0  0  0  0
  202.9461  155.1416   -1.3875 C   0  0  1  0  0  0  0  0  0  0  0  0
  202.2160  155.5652   -0.1122 C   0  0  1  0  0  0  0  0  0  0  0  0
  203.0077  156.7189    0.5219 C   0  0  2  0  0  0  0  0  0  0  0  0
  204.4609  156.3202    0.7804 C   0  0  2  0  0  0  0  0  0  0  0  0
  205.0869  155.7021   -0.4987 C   0  0  2  0  0  0  0  0  0  0  0  0
  204.2616  154.6796   -1.0393 O   0  0  0  0  0  0  0  0  0  0  0  0
  204.4922  155.4081    1.8959 O   0  0  0  0  0  0  0  0  0  0  0  0
  202.3906  157.1054    1.7642 O   0  0  0  0  0  0  0  0  0  0  0  0
  200.8965  156.0520   -0.3615 O   0  0  0  0  0  0  0  0  0  0  0  0
  202.9976  153.7744   -3.3747 O   0  0  0  0  0  0  0  0  0  0  0  0
  213.9788  153.6529    1.7241 C   0  0  2  0  0  0  0  0  0  0  0  0
  213.9669  152.6781    0.5347 C   0  0  1  0  0  0  0  0  0  0  0  0
  214.5650  151.3027    0.8896 C   0  0  1  0  0  0  0  0  0  0  0  0
  213.5386  150.1717    0.7831 C   0  0  2  0  0  0  0  0  0  0  0  0
  212.2265  150.6124    1.4040 C   0  0  2  0  0  0  0  0  0  0  0  0
  211.6667  151.8194    0.6199 C   0  0  2  0  0  0  0  0  0  0  0  0
  212.6550  152.6041   -0.0531 O   0  0  0  0  0  0  0  0  0  0  0  0
  212.4847  150.9492    2.7855 O   0  0  0  0  0  0  0  0  0  0  0  0
  214.0677  149.0256    1.4720 O   0  0  0  0  0  0  0  0  0  0  0  0
  215.6550  150.9899    0.0014 O   0  0  0  0  0  0  0  0  0  0  0  0
  213.7364  154.9873    1.2703 O   0  0  0  0  0  0  0  0  0  0  0  0
  196.5385  151.0287   -0.0731 O   0  0  0  0  0  0  0  0  0  0  0  0
  201.5753  150.3602    2.1562 O   0  0  0  0  0  0  0  0  0  0  0  0
  204.4444  147.3848    0.4585 O   0  0  0  0  0  0  0  0  0  0  0  0
  205.4101  142.7270   -0.3594 O   0  0  0  0  0  0  0  0  0  0  0  0
  205.6533  152.5563    0.5336 O   0  0  0  0  0  0  0  0  0  0  0  0
  206.3864  155.2064   -0.1672 O   0  0  0  0  0  0  0  0  0  0  0  0
  210.8668  152.5805    1.5257 O   0  0  0  0  0  0  0  0  0  0  0  0
  189.0124  149.8804    2.7477 H   0  0  0  0  0  0  0  0  0  0  0  0
  189.8766  151.4254    2.8134 H   0  0  0  0  0  0  0  0  0  0  0  0
  190.4693  150.0137    3.7536 H   0  0  0  0  0  0  0  0  0  0  0  0
  192.9502  149.0745    0.3396 H   0  0  0  0  0  0  0  0  0  0  0  0
  194.3395  151.6920    1.1285 H   0  0  0  0  0  0  0  0  0  0  0  0
  195.3413  149.3658   -0.5573 H   0  0  0  0  0  0  0  0  0  0  0  0
  194.5820  152.2196   -1.4278 H   0  0  0  0  0  0  0  0  0  0  0  0
  191.4727  150.3800   -1.1627 H   0  0  0  0  0  0  0  0  0  0  0  0
  191.9548  152.2108    0.3438 H   0  0  0  0  0  0  0  0  0  0  0  0
  196.4327  151.6028   -2.8049 H   0  0  0  0  0  0  0  0  0  0  0  0
  194.9734  151.2879   -3.7500 H   0  0  0  0  0  0  0  0  0  0  0  0
  196.7044  149.4873   -2.4605 H   0  0  0  0  0  0  0  0  0  0  0  0
  193.9920  149.7981    2.4807 H   0  0  0  0  0  0  0  0  0  0  0  0
  197.0293  153.5211   -1.4251 H   0  0  0  0  0  0  0  0  0  0  0  0
  198.1438  153.5030   -2.8350 H   0  0  0  0  0  0  0  0  0  0  0  0
  198.1715  154.8484   -1.6871 H   0  0  0  0  0  0  0  0  0  0  0  0
  198.9789  151.5576    0.9598 H   0  0  0  0  0  0  0  0  0  0  0  0
  200.0068  149.0210   -0.3788 H   0  0  0  0  0  0  0  0  0  0  0  0
  199.9639  149.0685    2.2547 H   0  0  0  0  0  0  0  0  0  0  0  0
  196.5941  149.7162    1.6294 H   0  0  0  0  0  0  0  0  0  0  0  0
  197.3126  148.3569   -0.3949 H   0  0  0  0  0  0  0  0  0  0  0  0
  199.9264  147.1412    0.4566 H   0  0  0  0  0  0  0  0  0  0  0  0
  198.3780  147.1163    1.3565 H   0  0  0  0  0  0  0  0  0  0  0  0
  199.3540  145.6311    1.2122 H   0  0  0  0  0  0  0  0  0  0  0  0
  200.1031  148.0154    2.5673 H   0  0  0  0  0  0  0  0  0  0  0  0
  200.9075  151.2712   -0.9761 H   0  0  0  0  0  0  0  0  0  0  0  0
  206.3069  151.1892    1.9904 H   0  0  0  0  0  0  0  0  0  0  0  0
  205.2958  152.5132    2.5365 H   0  0  0  0  0  0  0  0  0  0  0  0
  203.3809  151.5819    1.1847 H   0  0  0  0  0  0  0  0  0  0  0  0
  205.4830  149.4690    0.6836 H   0  0  0  0  0  0  0  0  0  0  0  0
  202.7354  148.4887    0.1073 H   0  0  0  0  0  0  0  0  0  0  0  0
  202.2702  147.5806    2.2891 H   0  0  0  0  0  0  0  0  0  0  0  0
  202.2991  149.5107    3.8776 H   0  0  0  0  0  0  0  0  0  0  0  0
  204.7101  148.5465    3.3034 H   0  0  0  0  0  0  0  0  0  0  0  0
  203.3082  150.4533   -0.8455 H   0  0  0  0  0  0  0  0  0  0  0  0
  201.2862  144.2211    2.2684 H   0  0  0  0  0  0  0  0  0  0  0  0
  200.5375  143.2499    0.9774 H   0  0  0  0  0  0  0  0  0  0  0  0
  201.7766  144.6960   -0.7179 H   0  0  0  0  0  0  0  0  0  0  0  0
  203.4954  143.1643    1.3359 H   0  0  0  0  0  0  0  0  0  0  0  0
  204.1665  143.8458   -1.5611 H   0  0  0  0  0  0  0  0  0  0  0  0
  205.7897  145.5133   -0.6584 H   0  0  0  0  0  0  0  0  0  0  0  0
  203.4766  146.4113   -1.0879 H   0  0  0  0  0  0  0  0  0  0  0  0
  205.1569  145.8915    1.7694 H   0  0  0  0  0  0  0  0  0  0  0  0
  202.3661  142.3625   -1.1590 H   0  0  0  0  0  0  0  0  0  0  0  0
  200.3967  146.0745    1.2010 H   0  0  0  0  0  0  0  0  0  0  0  0
  209.8120  144.6034    0.3468 H   0  0  0  0  0  0  0  0  0  0  0  0
  209.4029  144.2058    2.0306 H   0  0  0  0  0  0  0  0  0  0  0  0
  207.2328  143.2451    1.2692 H   0  0  0  0  0  0  0  0  0  0  0  0
  209.6556  142.0843   -0.2251 H   0  0  0  0  0  0  0  0  0  0  0  0
  207.0688  140.6855    0.6306 H   0  0  0  0  0  0  0  0  0  0  0  0
  206.4182  140.6882   -1.7382 H   0  0  0  0  0  0  0  0  0  0  0  0
  206.2234  143.1835   -2.2072 H   0  0  0  0  0  0  0  0  0  0  0  0
  208.5599  142.3546   -2.4446 H   0  0  0  0  0  0  0  0  0  0  0  0
  208.8725  139.7920   -1.2959 H   0  0  0  0  0  0  0  0  0  0  0  0
  209.4719  140.5952    1.5963 H   0  0  0  0  0  0  0  0  0  0  0  0
  207.3470  145.4902    1.2967 H   0  0  0  0  0  0  0  0  0  0  0  0
  209.8126  154.2813    1.8000 H   0  0  0  0  0  0  0  0  0  0  0  0
  210.9632  154.3538    0.4635 H   0  0  0  0  0  0  0  0  0  0  0  0
  209.4116  152.6478   -0.7537 H   0  0  0  0  0  0  0  0  0  0  0  0
  209.2549  154.7590   -1.6779 H   0  0  0  0  0  0  0  0  0  0  0  0
  206.9836  155.1832   -2.1467 H   0  0  0  0  0  0  0  0  0  0  0  0
  207.5870  152.6994   -2.1536 H   0  0  0  0  0  0  0  0  0  0  0  0
  207.0159  151.2660   -0.3175 H   0  0  0  0  0  0  0  0  0  0  0  0
  204.9264  153.0398   -1.4098 H   0  0  0  0  0  0  0  0  0  0  0  0
  207.9991  155.9177    0.5307 H   0  0  0  0  0  0  0  0  0  0  0  0
  201.2416  154.3060   -2.4616 H   0  0  0  0  0  0  0  0  0  0  0  0
  202.2291  153.0897   -1.5981 H   0  0  0  0  0  0  0  0  0  0  0  0
  203.0496  155.9946   -2.0728 H   0  0  0  0  0  0  0  0  0  0  0  0
  202.1490  154.7379    0.6057 H   0  0  0  0  0  0  0  0  0  0  0  0
  202.9700  157.5986   -0.1325 H   0  0  0  0  0  0  0  0  0  0  0  0
  205.0488  157.1865    1.1032 H   0  0  0  0  0  0  0  0  0  0  0  0
  205.2093  156.4900   -1.2528 H   0  0  0  0  0  0  0  0  0  0  0  0
  203.7844  155.7149    2.4977 H   0  0  0  0  0  0  0  0  0  0  0  0
  201.4277  157.0395    1.5839 H   0  0  0  0  0  0  0  0  0  0  0  0
  200.3213  155.2428   -0.3217 H   0  0  0  0  0  0  0  0  0  0  0  0
  203.8642  153.4184   -3.0885 H   0  0  0  0  0  0  0  0  0  0  0  0
  214.9550  153.6568    2.2182 H   0  0  0  0  0  0  0  0  0  0  0  0
  213.2134  153.4197    2.4662 H   0  0  0  0  0  0  0  0  0  0  0  0
  214.5866  153.1355   -0.2476 H   0  0  0  0  0  0  0  0  0  0  0  0
  215.0192  151.3263    1.8873 H   0  0  0  0  0  0  0  0  0  0  0  0
  213.3972  149.8702   -0.2612 H   0  0  0  0  0  0  0  0  0  0  0  0
  211.4944  149.7985    1.4353 H   0  0  0  0  0  0  0  0  0  0  0  0
  211.0276  151.4137   -0.1704 H   0  0  0  0  0  0  0  0  0  0  0  0
  211.7225  151.5136    3.0448 H   0  0  0  0  0  0  0  0  0  0  0  0
  213.8531  149.1681    2.4174 H   0  0  0  0  0  0  0  0  0  0  0  0
  215.8837  150.0579    0.1887 H   0  0  0  0  0  0  0  0  0  0  0  0
  212.9918  154.9353    0.6435 H   0  0  0  0  0  0  0  0  0  0  0  0
  1  2  1  0
  1 96  1  6
  1 97  1  0
  1 98  1  0
  2  3  2  0
  2  4  1  0
  5  4  1  0
  5  6  1  0
  5 99  1  6
  6  7  1  0
  6 14  1  0
  6100  1  1
  7  8  1  0
  7 89  1  0
  7101  1  6
  8  9  1  0
  8 12  1  0
  8102  1  1
  9 10  1  0
 10 11  1  0
 10  5  1  0
 10103  1  6
 11104  1  0
 12 13  1  0
 12105  1  1
 12106  1  0
 13107  1  0
 14108  1  0
 15 16  1  0
 15109  1  1
 15110  1  0
 15111  1  0
 16 17  2  0
 16 18  1  0
 19 18  1  0
 19 20  1  0
 19112  1  1
 20 21  1  0
 20 27  1  0
 20113  1  6
 21 90  1  0
 21114  1  0
 23 22  1  1
 22115  1  0
 23 24  1  0
 23 19  1  0
 23 89  1  0
 24116  1  0
 25 26  1  0
 25117  1  6
 25118  1  0
 25119  1  0
 26120  1  0
 27121  1  0
 28122  1  1
 28123  1  0
 29 28  1  0
 29 30  1  0
 29124  1  6
 30 31  1  0
 30 36  1  0
 30125  1  6
 31 32  1  0
 31 91  1  0
 31126  1  1
 32 33  1  0
 32 35  1  0
 32127  1  6
 33 34  1  0
 33 90  1  0
 33128  1  1
 34 29  1  0
 35129  1  0
 36130  1  0
 37 46  1  0
 37131  1  1
 37132  1  0
 38 37  1  0
 38 39  1  0
 38133  1  6
 39 40  1  0
 39 45  1  0
 39134  1  1
 40 41  1  0
 40 92  1  0
 40135  1  1
 41 42  1  0
 41 44  1  0
 41136  1  6
 42 43  1  0
 42 91  1  0
 42137  1  6
 43 38  1  0
 44138  1  0
 45139  1  0
 46140  1  0
 47 57  1  0
 47141  1  6
 47142  1  0
 48 47  1  0
 48 49  1  0
 48143  1  1
 49 50  1  0
 49 56  1  0
 49144  1  6
 50 51  1  0
 50 55  1  0
 50145  1  1
 51 52  1  0
 51 54  1  0
 51146  1  6
 52 53  1  0
 52 92  1  0
 52147  1  1
 53 48  1  0
 54148  1  0
 55149  1  0
 56150  1  0
 57151  1  0
 58152  1  1
 58153  1  0
 59 58  1  0
 59 60  1  0
 59154  1  6
 60 61  1  0
 60 66  1  0
 60155  1  1
 61 62  1  0
 61 94  1  0
 61156  1  1
 62 63  1  0
 62 65  1  0
 62157  1  6
 63 64  1  0
 63 93  1  0
 63158  1  1
 64 59  1  0
 65159  1  0
 66160  1  0
 67 77  1  0
 67161  1  6
 67162  1  0
 68 67  1  0
 68 69  1  0
 68163  1  6
 69 70  1  0
 69 76  1  0
 69164  1  1
 70 71  1  0
 70 75  1  0
 70165  1  6
 71 72  1  0
 71 74  1  0
 71166  1  1
 72 73  1  0
 72 94  1  0
 72167  1  6
 73 68  1  0
 74168  1  0
 75169  1  0
 76170  1  0
 77171  1  0
 78 88  1  0
 78172  1  1
 78173  1  0
 79 78  1  0
 79 80  1  0
 79174  1  6
 80 81  1  0
 80 87  1  0
 80175  1  1
 81 82  1  0
 81 86  1  0
 81176  1  6
 82 83  1  0
 82 85  1  0
 82177  1  1
 83 84  1  0
 83 95  1  0
 83178  1  6
 84 79  1  0
 85179  1  0
 86180  1  0
 87181  1  0
 88182  1  0
 93 28  1  0
 95 58  1  0
M  RAD  3   4   2  18   2  21   2
M  END
$$$$
