
     RDKit          3D

 84 86  0  0  0  0  0  0  0  0999 V2000
   37.4874   29.1682    0.9183 C   0  0  2  0  0  0  0  0  0  0  0  0
   36.4404   28.4180    0.0762 C   0  0  1  0  0  0  0  0  0  0  0  0
   35.0020   28.7276    0.5010 C   0  0  2  0  0  0  0  0  0  0  0  0
   34.8245   30.2234    0.6119 C   0  0  2  0  0  0  0  0  0  0  0  0
   35.8333   30.8674    1.4482 O   0  0  0  0  0  0  0  0  0  0  0  0
   37.1661   30.6712    1.0403 C   0  0  2  0  0  0  0  0  0  0  0  0
   38.2626   30.5692    0.2214 C   0  0  0  0  0  0  0  0  0  0  0  0
   37.3842   30.7673   -0.5972 O   0  0  0  0  0  0  0  0  0  0  0  0
   39.5493   30.3954    0.3445 O   0  0  0  0  0  0  0  0  0  0  0  0
   33.4355   30.5081    0.8840 C   0  0  1  0  0  0  0  0  0  0  0  0
   32.9565   31.8631    1.0304 C   0  0  2  0  0  0  0  0  0  0  0  0
   33.8535   32.1031    0.0195 O   0  0  0  0  0  0  0  0  0  0  0  0
   32.4480   29.5670    0.6254 O   0  0  0  0  0  0  0  0  0  0  0  0
   34.6681   28.3517    1.7031 O   0  0  0  0  0  0  0  0  0  0  0  0
   35.8206   24.0567    0.8601 C   0  0  2  0  0  0  0  0  0  0  0  0
   34.9021   23.3575   -0.1635 C   0  0  1  0  0  0  0  0  0  0  0  0
   33.4467   23.3232    0.3353 C   0  0  2  0  0  0  0  0  0  0  0  0
   33.0150   24.7621    0.7122 C   0  0  2  0  0  0  0  0  0  0  0  0
   33.9130   25.3563    1.6940 O   0  0  0  0  0  0  0  0  0  0  0  0
   35.2703   25.4388    1.2964 C   0  0  1  0  0  0  0  0  0  0  0  0
   35.9935   25.7770    0.2085 C   0  0  0  0  0  0  0  0  0  0  0  0
   35.1233   25.8887   -0.6050 O   0  0  0  0  0  0  0  0  0  0  0  0
   37.3444   25.7065    0.2865 O   0  0  0  0  0  0  0  0  0  0  0  0
   31.5927   25.1626    0.7488 C   0  0  1  0  0  0  0  0  0  0  0  0
   31.0732   26.5383    1.1945 C   0  0  2  0  0  0  0  0  0  0  0  0
   31.7363   27.0029    0.1081 O   0  0  0  0  0  0  0  0  0  0  0  0
   30.6284   24.1524    0.7027 O   0  0  0  0  0  0  0  0  0  0  0  0
   33.3966   22.5463    1.5438 O   0  0  0  0  0  0  0  0  0  0  0  0
   35.2500   21.8141    0.2887 O   0  0  0  0  0  0  0  0  0  0  0  0
   39.5726   34.1222    0.8480 C   0  0  2  0  0  0  0  0  0  0  0  0
   38.4575   33.4534    0.0151 C   0  0  1  0  0  0  0  0  0  0  0  0
   37.0537   33.7118    0.5541 C   0  0  2  0  0  0  0  0  0  0  0  0
   36.9114   35.1658    0.8876 C   0  0  2  0  0  0  0  0  0  0  0  0
   37.9321   35.6533    1.7614 O   0  0  0  0  0  0  0  0  0  0  0  0
   39.2300   35.5492    1.2116 C   0  0  2  0  0  0  0  0  0  0  0  0
   40.2249   36.0934    0.3020 C   0  0  0  0  0  0  0  0  0  0  0  0
   39.3724   36.1943   -0.5356 O   0  0  0  0  0  0  0  0  0  0  0  0
   41.5315   36.3377    0.3250 O   0  0  0  0  0  0  0  0  0  0  0  0
   40.0921   36.4948    1.7254 O   0  0  0  0  0  0  0  0  0  0  0  0
   35.4091   35.5490    0.8579 C   0  0  1  0  0  0  0  0  0  0  0  0
   34.9393   36.8922    0.9470 C   0  0  2  0  0  0  0  0  0  0  0  0
   35.9390   37.5199    0.2591 O   0  0  0  0  0  0  0  0  0  0  0  0
   34.5262   34.6062    0.4069 O   0  0  0  0  0  0  0  0  0  0  0  0
   36.7113   33.1419    1.6896 O   0  0  0  0  0  0  0  0  0  0  0  0
   38.2714   31.9690    1.0716 O   0  0  0  0  0  0  0  0  0  0  0  0
   36.2138   26.9817    1.2865 O   0  0  0  0  0  0  0  0  0  0  0  0
   38.4674   28.7064    1.0515 H   0  0  0  0  0  0  0  0  0  0  0  0
   36.9650   28.8259    1.6781 H   0  0  0  0  0  0  0  0  0  0  0  0
   37.2813   27.7581    0.1631 H   0  0  0  0  0  0  0  0  0  0  0  0
   34.1909   28.1287    0.1866 H   0  0  0  0  0  0  0  0  0  0  0  0
   35.5079   30.2400    0.0724 H   0  0  0  0  0  0  0  0  0  0  0  0
   39.6565   30.9120    1.1862 H   0  0  0  0  0  0  0  0  0  0  0  0
   33.5653   30.1039    1.7332 H   0  0  0  0  0  0  0  0  0  0  0  0
   33.5077   32.5776    1.5769 H   0  0  0  0  0  0  0  0  0  0  0  0
   31.9254   32.1765    0.7302 H   0  0  0  0  0  0  0  0  0  0  0  0
   34.8204   32.1177    0.1965 H   0  0  0  0  0  0  0  0  0  0  0  0
   32.8821   30.0846   -0.0141 H   0  0  0  0  0  0  0  0  0  0  0  0
   35.2501   27.6228    1.6306 H   0  0  0  0  0  0  0  0  0  0  0  0
   36.8737   23.8671    0.7684 H   0  0  0  0  0  0  0  0  0  0  0  0
   35.8054   23.3374    1.6912 H   0  0  0  0  0  0  0  0  0  0  0  0
   34.7340   23.3861    0.7094 H   0  0  0  0  0  0  0  0  0  0  0  0
   32.5033   22.7942    0.2456 H   0  0  0  0  0  0  0  0  0  0  0  0
   33.4644   25.4271    0.1925 H   0  0  0  0  0  0  0  0  0  0  0  0
   37.5084   25.9942    1.2771 H   0  0  0  0  0  0  0  0  0  0  0  0
   31.5940   24.8557    1.6753 H   0  0  0  0  0  0  0  0  0  0  0  0
   31.6107   27.3692    1.6625 H   0  0  0  0  0  0  0  0  0  0  0  0
   30.0157   26.7759    1.0199 H   0  0  0  0  0  0  0  0  0  0  0  0
   32.6827   26.9023    0.3180 H   0  0  0  0  0  0  0  0  0  0  0  0
   30.6048   24.7890    0.0240 H   0  0  0  0  0  0  0  0  0  0  0  0
   32.8912   23.3423    1.7419 H   0  0  0  0  0  0  0  0  0  0  0  0
   34.5604   21.5714    1.0303 H   0  0  0  0  0  0  0  0  0  0  0  0
   40.5563   34.0290    0.4157 H   0  0  0  0  0  0  0  0  0  0  0  0
   39.7444   33.5113    1.6387 H   0  0  0  0  0  0  0  0  0  0  0  0
   39.2805   32.7561    0.1896 H   0  0  0  0  0  0  0  0  0  0  0  0
   36.2429   33.1333    0.2510 H   0  0  0  0  0  0  0  0  0  0  0  0
   37.5813   35.4537    0.2214 H   0  0  0  0  0  0  0  0  0  0  0  0
   41.6558   36.2169    1.3010 H   0  0  0  0  0  0  0  0  0  0  0  0
   39.6982   37.3725    1.5671 H   0  0  0  0  0  0  0  0  0  0  0  0
   35.0394   35.1845    1.6979 H   0  0  0  0  0  0  0  0  0  0  0  0
   35.3539   37.5218    1.6892 H   0  0  0  0  0  0  0  0  0  0  0  0
   33.9194   37.1168    0.6249 H   0  0  0  0  0  0  0  0  0  0  0  0
   36.6573   36.9218    0.0537 H   0  0  0  0  0  0  0  0  0  0  0  0
   35.2257   34.7450   -0.1823 H   0  0  0  0  0  0  0  0  0  0  0  0
   37.6342   32.8792    1.6933 H   0  0  0  0  0  0  0  0  0  0  0  0
  1  2  1  0
  1 47  1  1
  1 48  1  0
  2  3  1  0
  2 46  1  0
  2 49  1  6
  3  4  1  0
  3 14  1  0
  3 50  1  6
  4  5  1  0
  4 10  1  0
  4 51  1  6
  5  6  1  0
  6  7  1  0
  6  1  1  0
  7  8  2  0
  7  9  1  0
  9 52  1  0
 10 11  1  0
 10 13  1  0
 10 53  1  1
 11 12  1  0
 11 54  1  1
 11 55  1  0
 12 56  1  0
 13 57  1  0
 14 58  1  0
 15 16  1  0
 15 59  1  6
 15 60  1  0
 16 17  1  0
 16 29  1  0
 16 61  1  6
 17 18  1  0
 17 28  1  0
 17 62  1  6
 18 19  1  0
 18 24  1  0
 18 63  1  6
 19 20  1  0
 20 21  1  0
 20 15  1  0
 21 22  2  0
 21 23  1  0
 23 64  1  0
 24 25  1  0
 24 27  1  0
 24 65  1  1
 25 26  1  0
 25 66  1  1
 25 67  1  0
 26 68  1  0
 27 69  1  0
 28 70  1  0
 29 71  1  0
 30 31  1  0
 30 72  1  6
 30 73  1  0
 31 32  1  0
 31 45  1  0
 31 74  1  6
 32 33  1  0
 32 44  1  0
 32 75  1  6
 33 34  1  0
 33 40  1  0
 33 76  1  6
 34 35  1  0
 35 36  1  0
 35 39  1  1
 35 30  1  0
 36 37  2  0
 36 38  1  0
 38 77  1  0
 39 78  1  0
 40 41  1  0
 40 43  1  0
 40 79  1  1
 41 42  1  0
 41 80  1  1
 41 81  1  0
 42 82  1  0
 43 83  1  0
 44 84  1  0
  6 45  1  1
 20 46  1  1
M  END
$$$$
